 
data_shelx
 
_audit_creation_method            'SHELXL-2014/7'
_shelx_SHELXL_version_number      '2014/7'
_chemical_name_systematic         ?
_chemical_name_common             ?
_chemical_melting_point           ?
_chemical_formula_moiety          ?
_chemical_formula_sum
 'Co2.52 Ge6.51 Nd2.38 Sn0.49 Y0.62' 
_chemical_formula_weight          1077.39

loop_
 _atom_type_symbol
 _atom_type_description
 _atom_type_scat_dispersion_real
 _atom_type_scat_dispersion_imag
 _atom_type_scat_source
 'Co'  'Co'   0.3494   0.9721
 'International Tables Vol C Tables 4.2.6.8 and 6.1.1.4'
 'Ge'  'Ge'   0.1547   1.8001
 'International Tables Vol C Tables 4.2.6.8 and 6.1.1.4'
 'Nd'  'Nd'  -0.1943   3.0179
 'International Tables Vol C Tables 4.2.6.8 and 6.1.1.4'
 'Y'  'Y'  -2.7962   3.5667
 'International Tables Vol C Tables 4.2.6.8 and 6.1.1.4'
 'Sn'  'Sn'  -0.6537   1.4246
 'International Tables Vol C Tables 4.2.6.8 and 6.1.1.4'
 
_space_group_crystal_system       orthorhombic
_space_group_IT_number            65
_space_group_name_H-M_alt         'C m m m'
_space_group_name_Hall            '-C 2 2'
 
_shelx_space_group_comment
;
The symmetry employed for this shelxl refinement is uniquely defined
by the following loop, which should always be used as a source of
symmetry information in preference to the above space-group names.
They are only intended as comments.
;
 
loop_
 _space_group_symop_operation_xyz
 'x, y, z'
 '-x, -y, z'
 '-x, y, -z'
 'x, -y, -z'
 'x+1/2, y+1/2, z'
 '-x+1/2, -y+1/2, z'
 '-x+1/2, y+1/2, -z'
 'x+1/2, -y+1/2, -z'
 '-x, -y, -z'
 'x, y, -z'
 'x, -y, z'
 '-x, y, z'
 '-x+1/2, -y+1/2, -z'
 'x+1/2, y+1/2, -z'
 'x+1/2, -y+1/2, z'
 '-x+1/2, y+1/2, z'
 
_cell_length_a                    4.215(7)
_cell_length_b                    25.78(5)
_cell_length_c                    4.263(6)
_cell_angle_alpha                 90
_cell_angle_beta                  90
_cell_angle_gamma                 90
_cell_volume                      463.1(13)
_cell_formula_units_Z             2
_cell_measurement_temperature     298(2)
_cell_measurement_reflns_used     ?
_cell_measurement_theta_min       ?
_cell_measurement_theta_max       ?
 
_exptl_crystal_description        ?
_exptl_crystal_colour             ?
_exptl_crystal_density_meas       ?
_exptl_crystal_density_method     ?
_exptl_crystal_density_diffrn     7.726          
_exptl_crystal_F_000              935
_exptl_transmission_factor_min    ?
_exptl_transmission_factor_max    ?
_exptl_crystal_size_max           0.080
_exptl_crystal_size_mid           0.060
_exptl_crystal_size_min           0.020
_exptl_absorpt_coefficient_mu     43.276
_shelx_estimated_absorpt_T_min    0.129
_shelx_estimated_absorpt_T_max    0.478
_exptl_absorpt_correction_type    ?
_exptl_absorpt_correction_T_min   ?
_exptl_absorpt_correction_T_max   ?
_exptl_absorpt_process_details    ?
_exptl_absorpt_special_details    ?
_diffrn_ambient_temperature       298(2)
_diffrn_radiation_wavelength      0.71073
_diffrn_radiation_type            MoK\a
_diffrn_source                    ?
_diffrn_measurement_device_type   ?
_diffrn_measurement_method        ?
_diffrn_detector_area_resol_mean  ?
_diffrn_reflns_number             27799
_diffrn_reflns_av_unetI/netI      0.0328
_diffrn_reflns_av_R_equivalents   0.0950
_diffrn_reflns_limit_h_min        -8
_diffrn_reflns_limit_h_max        8
_diffrn_reflns_limit_k_min        -51
_diffrn_reflns_limit_k_max        51
_diffrn_reflns_limit_l_min        -8
_diffrn_reflns_limit_l_max        8
_diffrn_reflns_theta_min          3.161
_diffrn_reflns_theta_max          45.348
_diffrn_reflns_theta_full         25.242
_diffrn_measured_fraction_theta_max   0.998
_diffrn_measured_fraction_theta_full  0.996
_diffrn_reflns_Laue_measured_fraction_max    0.998
_diffrn_reflns_Laue_measured_fraction_full   0.996
_diffrn_reflns_point_group_measured_fraction_max   0.998
_diffrn_reflns_point_group_measured_fraction_full  0.996
_reflns_number_total              1164
_reflns_number_gt                 784
_reflns_threshold_expression      'I > 2\s(I)'
_reflns_Friedel_coverage          0.000
_reflns_Friedel_fraction_max      .
_reflns_Friedel_fraction_full     .
 
_reflns_special_details
;
 Reflections were merged by SHELXL according to the crystal
 class for the calculation of statistics and refinement.
 
 _reflns_Friedel_fraction is defined as the number of unique
 Friedel pairs measured divided by the number that would be
 possible theoretically, ignoring centric projections and
 systematic absences.
;
 
_computing_data_collection        ?
_computing_cell_refinement        ?
_computing_data_reduction         ?
_computing_structure_solution     ?
_computing_structure_refinement 'SHELXL-2014/7 (Sheldrick, 2014)'
_computing_molecular_graphics     ?
_computing_publication_material   ?
_refine_special_details           ?
_refine_ls_structure_factor_coef  Fsqd
_refine_ls_matrix_type            full
_refine_ls_weighting_scheme       calc
_refine_ls_weighting_details
'w=1/[\s^2^(Fo^2^)+(0.0295P)^2^+13.8557P] where P=(Fo^2^+2Fc^2^)/3'
_atom_sites_solution_primary      ?
_atom_sites_solution_secondary    ?
_atom_sites_solution_hydrogens    .
_refine_ls_hydrogen_treatment     undef
_refine_ls_extinction_method      'SHELXL-2014/7 (Sheldrick 2014'
_refine_ls_extinction_coef        0.00108(13)
_refine_ls_extinction_expression
 'Fc^*^=kFc[1+0.001xFc^2^\l^3^/sin(2\q)]^-1/4^'
_refine_ls_number_reflns          1164
_refine_ls_number_parameters      39
_refine_ls_number_restraints      0
_refine_ls_R_factor_all           0.0670
_refine_ls_R_factor_gt            0.0360
_refine_ls_wR_factor_ref          0.0900
_refine_ls_wR_factor_gt           0.0804
_refine_ls_goodness_of_fit_ref    1.047
_refine_ls_restrained_S_all       1.047
_refine_ls_shift/su_max           0.000
_refine_ls_shift/su_mean          0.000
 
loop_
 _atom_site_label
 _atom_site_type_symbol
 _atom_site_fract_x
 _atom_site_fract_y
 _atom_site_fract_z
 _atom_site_U_iso_or_equiv
 _atom_site_adp_type
 _atom_site_occupancy
 _atom_site_site_symmetry_order  
 _atom_site_calc_flag
 _atom_site_refinement_flags_posn
 _atom_site_refinement_flags_adp
 _atom_site_refinement_flags_occupancy
 _atom_site_disorder_assembly
 _atom_site_disorder_group
Nd01 Nd 1.5000 0.5000 1.5000 0.01047(17) Uani 0.899(10) 8 d S T P . .
Y01 Y 1.5000 0.5000 1.5000 0.01047(17) Uani 0.101(10) 8 d S T P . .
Nd02 Nd 0.0000 0.31551(2) 0.0000 0.00892(12) Uani 0.742(8) 4 d S T P . .
Y02 Y 0.0000 0.31551(2) 0.0000 0.00892(12) Uani 0.258(8) 4 d S T P . .
Ge03 Ge 0.5000 0.27950(4) 0.5000 0.00985(17) Uani 1 4 d S T P . .
Ge04 Ge 0.5000 0.40856(4) 1.0000 0.01305(18) Uani 1 4 d S T P . .
Ge05 Ge 0.0000 0.40818(4) 0.5000 0.01316(19) Uani 1 4 d S T P . .
Co06 Co 0.5000 0.36952(5) 0.5000 0.0111(2) Uani 1 4 d S T P . .
Sn07 Sn 1.0000 0.5000 1.0000 0.0263(11) Uani 0.483(8) 8 d S T P . .
Ge08 Ge 1.0000 0.4685(3) 1.0000 0.0199(9) Uani 0.259(4) 4 d S T P . .
Co09 Co 1.0000 0.4417(3) 1.0000 0.039(2) Uani 0.259(4) 4 d S T P . .
 
loop_
 _atom_site_aniso_label
 _atom_site_aniso_U_11
 _atom_site_aniso_U_22
 _atom_site_aniso_U_33
 _atom_site_aniso_U_23
 _atom_site_aniso_U_13
 _atom_site_aniso_U_12
Nd01 0.0103(3) 0.0091(2) 0.0120(3) 0.000 0.000 0.000
Y01 0.0103(3) 0.0091(2) 0.0120(3) 0.000 0.000 0.000
Nd02 0.00868(18) 0.00847(18) 0.0096(2) 0.000 0.000 0.000
Y02 0.00868(18) 0.00847(18) 0.0096(2) 0.000 0.000 0.000
Ge03 0.0063(3) 0.0123(3) 0.0109(3) 0.000 0.000 0.000
Ge04 0.0172(4) 0.0136(4) 0.0084(3) 0.000 0.000 0.000
Ge05 0.0080(3) 0.0143(4) 0.0171(4) 0.000 0.000 0.000
Co06 0.0110(4) 0.0105(4) 0.0116(5) 0.000 0.000 0.000
Sn07 0.0123(8) 0.054(3) 0.0129(8) 0.000 0.000 0.000
Ge08 0.0157(17) 0.024(3) 0.0199(19) 0.000 0.000 0.000
Co09 0.051(5) 0.016(3) 0.049(5) 0.000 0.000 0.000
 
_geom_special_details
;
 All esds (except the esd in the dihedral angle between two l.s. planes)
 are estimated using the full covariance matrix.  The cell esds are taken
 into account individually in the estimation of esds in distances, angles
 and torsion angles; correlations between esds in cell parameters are only
 used when they are defined by crystal symmetry.  An approximate (isotropic)
 treatment of cell esds is used for estimating esds involving l.s. planes.
;
 
loop_
 _geom_bond_atom_site_label_1
 _geom_bond_atom_site_label_2
 _geom_bond_distance
 _geom_bond_site_symmetry_2
 _geom_bond_publ_flag
Nd01 Sn07 2.997(3) 1_656 ?
Nd01 Sn07 2.997(3) . ?
Nd01 Sn07 2.997(3) 1_556 ?
Nd01 Sn07 2.997(3) 1_655 ?
Nd01 Ge08 3.105(4) 9_868 ?
Nd01 Ge08 3.105(4) 9_767 ?
Nd01 Ge08 3.105(4) 1_656 ?
Nd01 Ge08 3.105(4) 9_768 ?
Nd01 Ge08 3.105(4) 9_867 ?
Nd01 Ge08 3.105(4) 1_556 ?
Nd01 Ge08 3.105(4) 1_655 ?
Nd01 Ge08 3.105(4) . ?
Nd02 Ge03 3.138(3) 1_454 ?
Nd02 Ge03 3.138(3) 1_455 ?
Nd02 Ge03 3.138(3) 1_554 ?
Nd02 Ge03 3.138(3) . ?
Nd02 Ge04 3.193(4) 1_554 ?
Nd02 Ge04 3.193(4) 1_454 ?
Nd02 Ge05 3.201(4) 1_554 ?
Nd02 Ge05 3.201(4) . ?
Nd02 Ge03 3.247(4) 13 ?
Nd02 Ge03 3.247(4) 13_556 ?
Nd02 Co09 3.252(9) 1_454 ?
Nd02 Co06 3.305(3) 1_454 ?
Ge03 Co06 2.320(4) . ?
Ge03 Ge03 2.599(3) 13_556 ?
Ge03 Ge03 2.599(3) 13_656 ?
Ge03 Y02 3.138(3) 1_656 ?
Ge03 Nd02 3.138(3) 1_656 ?
Ge03 Nd02 3.138(3) 1_655 ?
Ge03 Nd02 3.138(3) 1_556 ?
Ge03 Y02 3.138(3) 1_556 ?
Ge03 Y02 3.138(3) 1_655 ?
Ge03 Nd02 3.247(4) 13 ?
Ge04 Co09 2.274(4) 1_455 ?
Ge04 Co09 2.274(4) . ?
Ge04 Co06 2.357(3) . ?
Ge04 Co06 2.357(3) 1_556 ?
Ge04 Ge08 2.614(6) . ?
Ge04 Ge08 2.614(6) 1_455 ?
Ge04 Nd01 3.178(4) 1_455 ?
Ge04 Y01 3.178(4) 1_455 ?
Ge04 Y01 3.178(4) 1_454 ?
Ge04 Nd01 3.178(4) 1_454 ?
Ge04 Nd02 3.193(4) 1_556 ?
Ge04 Y02 3.193(4) 1_556 ?
Ge05 Co09 2.300(4) 1_455 ?
Ge05 Co09 2.300(4) 1_454 ?
Ge05 Co06 2.331(3) . ?
Ge05 Co06 2.331(3) 1_455 ?
Ge05 Ge08 2.639(5) 1_455 ?
Ge05 Ge08 2.639(5) 1_454 ?
Ge05 Nd01 3.169(4) 1_454 ?
Ge05 Y01 3.169(4) 1_454 ?
Ge05 Y01 3.169(4) 1_354 ?
Ge05 Nd01 3.169(4) 1_354 ?
Co06 Ge05 2.331(3) 1_655 ?
Co06 Ge04 2.357(3) 1_554 ?
Co06 Y02 3.305(3) 1_656 ?
Co06 Nd02 3.305(3) 1_656 ?
Co06 Nd02 3.305(3) 1_655 ?
Co06 Nd02 3.305(3) 1_556 ?
Co06 Y02 3.305(3) 1_655 ?
Sn07 Ge08 0.811(8) 9_767 ?
Sn07 Ge08 0.811(8) . ?
Sn07 Co09 1.503(8) . ?
Sn07 Co09 1.503(8) 9_767 ?
Sn07 Nd01 2.997(3) 1_454 ?
Sn07 Y01 2.997(3) 1_454 ?
Sn07 Nd01 2.997(3) 1_554 ?
Sn07 Y01 2.997(3) 1_554 ?
Sn07 Y01 2.997(3) 1_455 ?
Sn07 Nd01 2.997(3) 1_455 ?
Ge08 Co09 0.692(10) . ?
Ge08 Ge08 1.622(16) 9_767 ?
Ge08 Co09 2.314(12) 9_767 ?
Ge08 Ge04 2.614(6) 1_655 ?
Ge08 Ge05 2.639(5) 1_655 ?
Ge08 Ge05 2.639(5) 1_656 ?
Ge08 Y01 3.105(4) 1_454 ?
Ge08 Nd01 3.105(4) 1_454 ?
Co09 Ge04 2.274(4) 1_655 ?
Co09 Ge05 2.300(4) 1_655 ?
Co09 Ge05 2.300(4) 1_656 ?
Co09 Ge08 2.314(12) 9_767 ?
Co09 Y02 3.252(9) 1_656 ?
Co09 Nd02 3.252(9) 1_656 ?
Co09 Nd01 3.353(5) 1_454 ?
 
loop_
 _geom_angle_atom_site_label_1
 _geom_angle_atom_site_label_2
 _geom_angle_atom_site_label_3
 _geom_angle
 _geom_angle_site_symmetry_1
 _geom_angle_site_symmetry_3
 _geom_angle_publ_flag
Sn07 Nd01 Sn07 180.0 1_656 . ?
Sn07 Nd01 Sn07 89.35(13) 1_656 1_556 ?
Sn07 Nd01 Sn07 90.65(13) . 1_556 ?
Sn07 Nd01 Sn07 90.65(13) 1_656 1_655 ?
Sn07 Nd01 Sn07 89.35(13) . 1_655 ?
Sn07 Nd01 Sn07 180.0 1_556 1_655 ?
Sn07 Nd01 Ge08 15.14(14) 1_656 9_868 ?
Sn07 Nd01 Ge08 164.86(14) . 9_868 ?
Sn07 Nd01 Ge08 89.38(12) 1_556 9_868 ?
Sn07 Nd01 Ge08 90.62(12) 1_655 9_868 ?
Sn07 Nd01 Ge08 164.86(14) 1_656 9_767 ?
Sn07 Nd01 Ge08 15.14(14) . 9_767 ?
Sn07 Nd01 Ge08 90.62(12) 1_556 9_767 ?
Sn07 Nd01 Ge08 89.38(12) 1_655 9_767 ?
Ge08 Nd01 Ge08 149.7(3) 9_868 9_767 ?
Sn07 Nd01 Ge08 15.14(14) 1_656 1_656 ?
Sn07 Nd01 Ge08 164.86(14) . 1_656 ?
Sn07 Nd01 Ge08 89.38(12) 1_556 1_656 ?
Sn07 Nd01 Ge08 90.62(12) 1_655 1_656 ?
Ge08 Nd01 Ge08 30.3(3) 9_868 1_656 ?
Ge08 Nd01 Ge08 180.0 9_767 1_656 ?
Sn07 Nd01 Ge08 89.38(12) 1_656 9_768 ?
Sn07 Nd01 Ge08 90.62(12) . 9_768 ?
Sn07 Nd01 Ge08 15.14(14) 1_556 9_768 ?
Sn07 Nd01 Ge08 164.86(14) 1_655 9_768 ?
Ge08 Nd01 Ge08 85.48(14) 9_868 9_768 ?
Ge08 Nd01 Ge08 86.69(14) 9_767 9_768 ?
Ge08 Nd01 Ge08 93.31(14) 1_656 9_768 ?
Sn07 Nd01 Ge08 90.62(12) 1_656 9_867 ?
Sn07 Nd01 Ge08 89.38(12) . 9_867 ?
Sn07 Nd01 Ge08 164.86(14) 1_556 9_867 ?
Sn07 Nd01 Ge08 15.14(14) 1_655 9_867 ?
Ge08 Nd01 Ge08 86.69(14) 9_868 9_867 ?
Ge08 Nd01 Ge08 85.48(14) 9_767 9_867 ?
Ge08 Nd01 Ge08 94.52(14) 1_656 9_867 ?
Ge08 Nd01 Ge08 149.7(3) 9_768 9_867 ?
Sn07 Nd01 Ge08 89.38(12) 1_656 1_556 ?
Sn07 Nd01 Ge08 90.62(12) . 1_556 ?
Sn07 Nd01 Ge08 15.14(14) 1_556 1_556 ?
Sn07 Nd01 Ge08 164.86(14) 1_655 1_556 ?
Ge08 Nd01 Ge08 93.31(14) 9_868 1_556 ?
Ge08 Nd01 Ge08 94.52(14) 9_767 1_556 ?
Ge08 Nd01 Ge08 85.48(14) 1_656 1_556 ?
Ge08 Nd01 Ge08 30.3(3) 9_768 1_556 ?
Ge08 Nd01 Ge08 180.0(3) 9_867 1_556 ?
Sn07 Nd01 Ge08 90.62(12) 1_656 1_655 ?
Sn07 Nd01 Ge08 89.38(12) . 1_655 ?
Sn07 Nd01 Ge08 164.86(14) 1_556 1_655 ?
Sn07 Nd01 Ge08 15.14(14) 1_655 1_655 ?
Ge08 Nd01 Ge08 94.52(14) 9_868 1_655 ?
Ge08 Nd01 Ge08 93.31(14) 9_767 1_655 ?
Ge08 Nd01 Ge08 86.69(14) 1_656 1_655 ?
Ge08 Nd01 Ge08 180.0 9_768 1_655 ?
Ge08 Nd01 Ge08 30.3(3) 9_867 1_655 ?
Ge08 Nd01 Ge08 149.7(3) 1_556 1_655 ?
Sn07 Nd01 Ge08 164.86(14) 1_656 . ?
Sn07 Nd01 Ge08 15.14(14) . . ?
Sn07 Nd01 Ge08 90.62(12) 1_556 . ?
Sn07 Nd01 Ge08 89.38(12) 1_655 . ?
Ge08 Nd01 Ge08 180.0 9_868 . ?
Ge08 Nd01 Ge08 30.3(3) 9_767 . ?
Ge08 Nd01 Ge08 149.7(3) 1_656 . ?
Ge08 Nd01 Ge08 94.52(14) 9_768 . ?
Ge08 Nd01 Ge08 93.31(14) 9_867 . ?
Ge08 Nd01 Ge08 86.69(14) 1_556 . ?
Ge08 Nd01 Ge08 85.48(14) 1_655 . ?
Ge03 Nd02 Ge03 85.57(11) 1_454 1_455 ?
Ge03 Nd02 Ge03 84.39(12) 1_454 1_554 ?
Ge03 Nd02 Ge03 145.59(8) 1_455 1_554 ?
Ge03 Nd02 Ge03 145.59(8) 1_454 . ?
Ge03 Nd02 Ge03 84.39(12) 1_455 . ?
Ge03 Nd02 Ge03 85.57(11) 1_554 . ?
Ge03 Nd02 Ge04 131.72(5) 1_454 1_554 ?
Ge03 Nd02 Ge04 131.72(5) 1_455 1_554 ?
Ge03 Nd02 Ge04 77.22(9) 1_554 1_554 ?
Ge03 Nd02 Ge04 77.22(9) . 1_554 ?
Ge03 Nd02 Ge04 77.22(9) 1_454 1_454 ?
Ge03 Nd02 Ge04 77.22(9) 1_455 1_454 ?
Ge03 Nd02 Ge04 131.72(5) 1_554 1_454 ?
Ge03 Nd02 Ge04 131.72(5) . 1_454 ?
Ge04 Nd02 Ge04 82.61(14) 1_554 1_454 ?
Ge03 Nd02 Ge05 76.61(9) 1_454 1_554 ?
Ge03 Nd02 Ge05 132.29(5) 1_455 1_554 ?
Ge03 Nd02 Ge05 76.61(9) 1_554 1_554 ?
Ge03 Nd02 Ge05 132.30(5) . 1_554 ?
Ge04 Nd02 Ge05 55.91(7) 1_554 1_554 ?
Ge04 Nd02 Ge05 55.91(7) 1_454 1_554 ?
Ge03 Nd02 Ge05 132.29(5) 1_454 . ?
Ge03 Nd02 Ge05 76.61(9) 1_455 . ?
Ge03 Nd02 Ge05 132.29(5) 1_554 . ?
Ge03 Nd02 Ge05 76.61(9) . . ?
Ge04 Nd02 Ge05 55.91(7) 1_554 . ?
Ge04 Nd02 Ge05 55.91(7) 1_454 . ?
Ge05 Nd02 Ge05 83.49(13) 1_554 . ?
Ge03 Nd02 Ge03 48.01(5) 1_454 13 ?
Ge03 Nd02 Ge03 102.88(9) 1_455 13 ?
Ge03 Nd02 Ge03 48.01(5) 1_554 13 ?
Ge03 Nd02 Ge03 102.88(8) . 13 ?
Ge04 Nd02 Ge03 124.52(7) 1_554 13 ?
Ge04 Nd02 Ge03 124.52(7) 1_454 13 ?
Ge05 Nd02 Ge03 97.22(13) 1_554 13 ?
Ge05 Nd02 Ge03 179.29(2) . 13 ?
Ge03 Nd02 Ge03 102.88(9) 1_454 13_556 ?
Ge03 Nd02 Ge03 48.01(5) 1_455 13_556 ?
Ge03 Nd02 Ge03 102.88(9) 1_554 13_556 ?
Ge03 Nd02 Ge03 48.01(5) . 13_556 ?
Ge04 Nd02 Ge03 124.52(7) 1_554 13_556 ?
Ge04 Nd02 Ge03 124.52(7) 1_454 13_556 ?
Ge05 Nd02 Ge03 179.29(2) 1_554 13_556 ?
Ge05 Nd02 Ge03 97.22(13) . 13_556 ?
Ge03 Nd02 Ge03 82.07(13) 13 13_556 ?
Ge03 Nd02 Co09 107.20(4) 1_454 1_454 ?
Ge03 Nd02 Co09 107.20(4) 1_455 1_454 ?
Ge03 Nd02 Co09 107.20(4) 1_554 1_454 ?
Ge03 Nd02 Co09 107.20(4) . 1_454 ?
Ge04 Nd02 Co09 41.31(7) 1_554 1_454 ?
Ge04 Nd02 Co09 41.31(7) 1_454 1_454 ?
Ge05 Nd02 Co09 41.74(7) 1_554 1_454 ?
Ge05 Nd02 Co09 41.74(7) . 1_454 ?
Ge03 Nd02 Co09 138.97(6) 13 1_454 ?
Ge03 Nd02 Co09 138.97(6) 13_556 1_454 ?
Ge03 Nd02 Co06 42.11(8) 1_454 1_454 ?
Ge03 Nd02 Co06 97.72(12) 1_455 1_454 ?
Ge03 Nd02 Co06 96.59(11) 1_554 1_454 ?
Ge03 Nd02 Co06 172.29(3) . 1_454 ?
Ge04 Nd02 Co06 96.00(11) 1_554 1_454 ?
Ge04 Nd02 Co06 42.49(5) 1_454 1_454 ?
Ge05 Nd02 Co06 41.95(5) 1_554 1_454 ?
Ge05 Nd02 Co06 96.61(10) . 1_454 ?
Ge03 Nd02 Co06 83.93(10) 13 1_454 ?
Ge03 Nd02 Co06 137.83(5) 13_556 1_454 ?
Co09 Nd02 Co06 65.09(5) 1_454 1_454 ?
Co06 Ge03 Ge03 125.82(8) . 13_556 ?
Co06 Ge03 Ge03 125.82(8) . 13_656 ?
Ge03 Ge03 Ge03 108.37(15) 13_556 13_656 ?
Co06 Ge03 Y02 72.80(4) . 1_656 ?
Ge03 Ge03 Y02 135.87(6) 13_556 1_656 ?
Ge03 Ge03 Y02 68.19(9) 13_656 1_656 ?
Co06 Ge03 Nd02 72.80(4) . 1_656 ?
Ge03 Ge03 Nd02 135.87(6) 13_556 1_656 ?
Ge03 Ge03 Nd02 68.19(9) 13_656 1_656 ?
Y02 Ge03 Nd02 0.0 1_656 1_656 ?
Co06 Ge03 Nd02 72.80(4) . 1_655 ?
Ge03 Ge03 Nd02 135.87(6) 13_556 1_655 ?
Ge03 Ge03 Nd02 68.19(9) 13_656 1_655 ?
Y02 Ge03 Nd02 85.6 1_656 1_655 ?
Nd02 Ge03 Nd02 85.57(11) 1_656 1_655 ?
Co06 Ge03 Nd02 72.80(4) . 1_556 ?
Ge03 Ge03 Nd02 68.19(9) 13_556 1_556 ?
Ge03 Ge03 Nd02 135.87(6) 13_656 1_556 ?
Y02 Ge03 Nd02 84.4 1_656 1_556 ?
Nd02 Ge03 Nd02 84.39(12) 1_656 1_556 ?
Nd02 Ge03 Nd02 145.59(8) 1_655 1_556 ?
Co06 Ge03 Y02 72.80(4) . 1_556 ?
Ge03 Ge03 Y02 68.19(9) 13_556 1_556 ?
Ge03 Ge03 Y02 135.87(6) 13_656 1_556 ?
Y02 Ge03 Y02 84.39(12) 1_656 1_556 ?
Nd02 Ge03 Y02 84.39(12) 1_656 1_556 ?
Nd02 Ge03 Y02 145.59(8) 1_655 1_556 ?
Nd02 Ge03 Y02 0.0 1_556 1_556 ?
Co06 Ge03 Y02 72.80(4) . 1_655 ?
Ge03 Ge03 Y02 135.87(6) 13_556 1_655 ?
Ge03 Ge03 Y02 68.19(9) 13_656 1_655 ?
Y02 Ge03 Y02 85.57(11) 1_656 1_655 ?
Nd02 Ge03 Y02 85.57(11) 1_656 1_655 ?
Nd02 Ge03 Y02 0.000(17) 1_655 1_655 ?
Nd02 Ge03 Y02 145.59(8) 1_556 1_655 ?
Y02 Ge03 Y02 145.59(8) 1_556 1_655 ?
Co06 Ge03 Nd02 72.80(4) . . ?
Ge03 Ge03 Nd02 68.19(9) 13_556 . ?
Ge03 Ge03 Nd02 135.87(6) 13_656 . ?
Y02 Ge03 Nd02 145.6 1_656 . ?
Nd02 Ge03 Nd02 145.59(8) 1_656 . ?
Nd02 Ge03 Nd02 84.39(12) 1_655 . ?
Nd02 Ge03 Nd02 85.57(11) 1_556 . ?
Y02 Ge03 Nd02 85.6 1_556 . ?
Y02 Ge03 Nd02 84.4 1_655 . ?
Co06 Ge03 Nd02 138.96(6) . 13 ?
Ge03 Ge03 Nd02 63.81(7) 13_556 13 ?
Ge03 Ge03 Nd02 63.81(7) 13_656 13 ?
Y02 Ge03 Nd02 132.0 1_656 13 ?
Nd02 Ge03 Nd02 131.99(5) 1_656 13 ?
Nd02 Ge03 Nd02 77.12(8) 1_655 13 ?
Nd02 Ge03 Nd02 131.99(5) 1_556 13 ?
Y02 Ge03 Nd02 132.0 1_556 13 ?
Y02 Ge03 Nd02 77.1 1_655 13 ?
Nd02 Ge03 Nd02 77.12(8) . 13 ?
Co09 Ge04 Co09 135.9(4) 1_455 . ?
Co09 Ge04 Co06 99.23(8) 1_455 . ?
Co09 Ge04 Co06 99.23(8) . . ?
Co09 Ge04 Co06 99.23(8) 1_455 1_556 ?
Co09 Ge04 Co06 99.23(8) . 1_556 ?
Co06 Ge04 Co06 129.45(12) . 1_556 ?
Co09 Ge04 Ge08 121.7(3) 1_455 . ?
Co09 Ge04 Ge08 14.2(2) . . ?
Co06 Ge04 Ge08 104.63(7) . . ?
Co06 Ge04 Ge08 104.63(7) 1_556 . ?
Co09 Ge04 Ge08 14.2(2) 1_455 1_455 ?
Co09 Ge04 Ge08 121.7(3) . 1_455 ?
Co06 Ge04 Ge08 104.63(7) . 1_455 ?
Co06 Ge04 Ge08 104.63(7) 1_556 1_455 ?
Ge08 Ge04 Ge08 107.5(3) . 1_455 ?
Co09 Ge04 Nd01 73.83(13) 1_455 1_455 ?
Co09 Ge04 Nd01 73.83(13) . 1_455 ?
Co06 Ge04 Nd01 157.40(5) . 1_455 ?
Co06 Ge04 Nd01 73.15(12) 1_556 1_455 ?
Ge08 Ge04 Nd01 63.98(11) . 1_455 ?
Ge08 Ge04 Nd01 63.98(11) 1_455 1_455 ?
Co09 Ge04 Y01 73.83(13) 1_455 1_455 ?
Co09 Ge04 Y01 73.83(13) . 1_455 ?
Co06 Ge04 Y01 157.40(5) . 1_455 ?
Co06 Ge04 Y01 73.15(12) 1_556 1_455 ?
Ge08 Ge04 Y01 63.98(11) . 1_455 ?
Ge08 Ge04 Y01 63.98(11) 1_455 1_455 ?
Nd01 Ge04 Y01 0.0 1_455 1_455 ?
Co09 Ge04 Y01 73.83(13) 1_455 1_454 ?
Co09 Ge04 Y01 73.83(13) . 1_454 ?
Co06 Ge04 Y01 73.15(12) . 1_454 ?
Co06 Ge04 Y01 157.40(5) 1_556 1_454 ?
Ge08 Ge04 Y01 63.98(11) . 1_454 ?
Ge08 Ge04 Y01 63.98(11) 1_455 1_454 ?
Nd01 Ge04 Y01 84.25(13) 1_455 1_454 ?
Y01 Ge04 Y01 84.25(13) 1_455 1_454 ?
Co09 Ge04 Nd01 73.83(13) 1_455 1_454 ?
Co09 Ge04 Nd01 73.83(13) . 1_454 ?
Co06 Ge04 Nd01 73.15(12) . 1_454 ?
Co06 Ge04 Nd01 157.40(5) 1_556 1_454 ?
Ge08 Ge04 Nd01 63.98(11) . 1_454 ?
Ge08 Ge04 Nd01 63.98(11) 1_455 1_454 ?
Nd01 Ge04 Nd01 84.25(13) 1_455 1_454 ?
Y01 Ge04 Nd01 84.2 1_455 1_454 ?
Y01 Ge04 Nd01 0.0 1_454 1_454 ?
Co09 Ge04 Nd02 70.8(2) 1_455 1_556 ?
Co09 Ge04 Nd02 153.36(18) . 1_556 ?
Co06 Ge04 Nd02 71.29(6) . 1_556 ?
Co06 Ge04 Nd02 71.29(6) 1_556 1_556 ?
Ge08 Ge04 Nd02 167.57(14) . 1_556 ?
Ge08 Ge04 Nd02 84.96(19) 1_455 1_556 ?
Nd01 Ge04 Nd02 123.86(7) 1_455 1_556 ?
Y01 Ge04 Nd02 123.86(7) 1_455 1_556 ?
Y01 Ge04 Nd02 123.86(7) 1_454 1_556 ?
Nd01 Ge04 Nd02 123.86(7) 1_454 1_556 ?
Co09 Ge04 Y02 70.8(2) 1_455 1_556 ?
Co09 Ge04 Y02 153.36(18) . 1_556 ?
Co06 Ge04 Y02 71.29(6) . 1_556 ?
Co06 Ge04 Y02 71.29(6) 1_556 1_556 ?
Ge08 Ge04 Y02 167.57(14) . 1_556 ?
Ge08 Ge04 Y02 84.96(19) 1_455 1_556 ?
Nd01 Ge04 Y02 123.86(7) 1_455 1_556 ?
Y01 Ge04 Y02 123.86(7) 1_455 1_556 ?
Y01 Ge04 Y02 123.86(7) 1_454 1_556 ?
Nd01 Ge04 Y02 123.86(7) 1_454 1_556 ?
Nd02 Ge04 Y02 0.000(11) 1_556 1_556 ?
Co09 Ge05 Co09 135.9(4) 1_455 1_454 ?
Co09 Ge05 Co06 99.24(8) 1_455 . ?
Co09 Ge05 Co06 99.24(8) 1_454 . ?
Co09 Ge05 Co06 99.24(8) 1_455 1_455 ?
Co09 Ge05 Co06 99.24(8) 1_454 1_455 ?
Co06 Ge05 Co06 129.38(13) . 1_455 ?
Co09 Ge05 Ge08 14.1(2) 1_455 1_455 ?
Co09 Ge05 Ge08 121.8(3) 1_454 1_455 ?
Co06 Ge05 Ge08 104.60(7) . 1_455 ?
Co06 Ge05 Ge08 104.60(7) 1_455 1_455 ?
Co09 Ge05 Ge08 121.8(3) 1_455 1_454 ?
Co09 Ge05 Ge08 14.1(2) 1_454 1_454 ?
Co06 Ge05 Ge08 104.60(7) . 1_454 ?
Co06 Ge05 Ge08 104.60(7) 1_455 1_454 ?
Ge08 Ge05 Ge08 107.7(3) 1_455 1_454 ?
Co09 Ge05 Nd01 73.71(13) 1_455 1_454 ?
Co09 Ge05 Nd01 73.71(13) 1_454 1_454 ?
Co06 Ge05 Nd01 73.62(13) . 1_454 ?
Co06 Ge05 Nd01 156.99(4) 1_455 1_454 ?
Ge08 Ge05 Nd01 63.88(11) 1_455 1_454 ?
Ge08 Ge05 Nd01 63.88(11) 1_454 1_454 ?
Co09 Ge05 Y01 73.71(13) 1_455 1_454 ?
Co09 Ge05 Y01 73.71(13) 1_454 1_454 ?
Co06 Ge05 Y01 73.62(13) . 1_454 ?
Co06 Ge05 Y01 156.99(4) 1_455 1_454 ?
Ge08 Ge05 Y01 63.88(11) 1_455 1_454 ?
Ge08 Ge05 Y01 63.88(11) 1_454 1_454 ?
Nd01 Ge05 Y01 0.0 1_454 1_454 ?
Co09 Ge05 Y01 73.71(13) 1_455 1_354 ?
Co09 Ge05 Y01 73.71(13) 1_454 1_354 ?
Co06 Ge05 Y01 156.99(4) . 1_354 ?
Co06 Ge05 Y01 73.62(13) 1_455 1_354 ?
Ge08 Ge05 Y01 63.88(11) 1_455 1_354 ?
Ge08 Ge05 Y01 63.88(11) 1_454 1_354 ?
Nd01 Ge05 Y01 83.37(14) 1_454 1_354 ?
Y01 Ge05 Y01 83.37(14) 1_454 1_354 ?
Co09 Ge05 Nd01 73.71(13) 1_455 1_354 ?
Co09 Ge05 Nd01 73.71(13) 1_454 1_354 ?
Co06 Ge05 Nd01 156.99(4) . 1_354 ?
Co06 Ge05 Nd01 73.62(13) 1_455 1_354 ?
Ge08 Ge05 Nd01 63.88(11) 1_455 1_354 ?
Ge08 Ge05 Nd01 63.88(11) 1_454 1_354 ?
Nd01 Ge05 Nd01 83.37(14) 1_454 1_354 ?
Y01 Ge05 Nd01 83.4 1_454 1_354 ?
Y01 Ge05 Nd01 0.0 1_354 1_354 ?
Co09 Ge05 Nd02 153.80(17) 1_455 . ?
Co09 Ge05 Nd02 70.3(2) 1_454 . ?
Co06 Ge05 Nd02 71.40(6) . . ?
Co06 Ge05 Nd02 71.40(6) 1_455 . ?
Ge08 Ge05 Nd02 167.87(14) 1_455 . ?
Ge08 Ge05 Nd02 84.38(19) 1_454 . ?
Nd01 Ge05 Nd02 123.86(7) 1_454 . ?
Y01 Ge05 Nd02 123.86(7) 1_454 . ?
Y01 Ge05 Nd02 123.86(7) 1_354 . ?
Nd01 Ge05 Nd02 123.86(7) 1_354 . ?
Ge03 Co06 Ge05 115.31(6) . 1_655 ?
Ge03 Co06 Ge05 115.31(6) . . ?
Ge05 Co06 Ge05 129.38(13) 1_655 . ?
Ge03 Co06 Ge04 115.27(6) . 1_554 ?
Ge05 Co06 Ge04 79.49(4) 1_655 1_554 ?
Ge05 Co06 Ge04 79.48(4) . 1_554 ?
Ge03 Co06 Ge04 115.27(6) . . ?
Ge05 Co06 Ge04 79.48(4) 1_655 . ?
Ge05 Co06 Ge04 79.48(4) . . ?
Ge04 Co06 Ge04 129.46(12) 1_554 . ?
Ge03 Co06 Nd02 65.09(5) . . ?
Ge05 Co06 Nd02 139.16(5) 1_655 . ?
Ge05 Co06 Nd02 66.65(9) . . ?
Ge04 Co06 Nd02 66.21(8) 1_554 . ?
Ge04 Co06 Nd02 139.73(6) . . ?
Ge03 Co06 Y02 65.09(5) . 1_656 ?
Ge05 Co06 Y02 66.65(9) 1_655 1_656 ?
Ge05 Co06 Y02 139.16(5) . 1_656 ?
Ge04 Co06 Y02 139.73(6) 1_554 1_656 ?
Ge04 Co06 Y02 66.21(8) . 1_656 ?
Nd02 Co06 Y02 130.2 . 1_656 ?
Ge03 Co06 Nd02 65.09(5) . 1_656 ?
Ge05 Co06 Nd02 66.65(9) 1_655 1_656 ?
Ge05 Co06 Nd02 139.16(5) . 1_656 ?
Ge04 Co06 Nd02 139.73(6) 1_554 1_656 ?
Ge04 Co06 Nd02 66.21(8) . 1_656 ?
Nd02 Co06 Nd02 130.18(10) . 1_656 ?
Y02 Co06 Nd02 0.0 1_656 1_656 ?
Ge03 Co06 Nd02 65.09(5) . 1_655 ?
Ge05 Co06 Nd02 66.65(9) 1_655 1_655 ?
Ge05 Co06 Nd02 139.16(5) . 1_655 ?
Ge04 Co06 Nd02 66.21(8) 1_554 1_655 ?
Ge04 Co06 Nd02 139.73(6) . 1_655 ?
Nd02 Co06 Nd02 79.24(12) . 1_655 ?
Y02 Co06 Nd02 80.3 1_656 1_655 ?
Nd02 Co06 Nd02 80.32(11) 1_656 1_655 ?
Ge03 Co06 Nd02 65.09(5) . 1_556 ?
Ge05 Co06 Nd02 139.16(5) 1_655 1_556 ?
Ge05 Co06 Nd02 66.65(9) . 1_556 ?
Ge04 Co06 Nd02 139.73(6) 1_554 1_556 ?
Ge04 Co06 Nd02 66.21(8) . 1_556 ?
Nd02 Co06 Nd02 80.32(11) . 1_556 ?
Y02 Co06 Nd02 79.2 1_656 1_556 ?
Nd02 Co06 Nd02 79.24(11) 1_656 1_556 ?
Nd02 Co06 Nd02 130.18(10) 1_655 1_556 ?
Ge03 Co06 Y02 65.09(5) . 1_655 ?
Ge05 Co06 Y02 66.65(9) 1_655 1_655 ?
Ge05 Co06 Y02 139.16(5) . 1_655 ?
Ge04 Co06 Y02 66.21(8) 1_554 1_655 ?
Ge04 Co06 Y02 139.73(6) . 1_655 ?
Nd02 Co06 Y02 79.2 . 1_655 ?
Y02 Co06 Y02 80.32(11) 1_656 1_655 ?
Nd02 Co06 Y02 80.32(11) 1_656 1_655 ?
Nd02 Co06 Y02 0.000(15) 1_655 1_655 ?
Nd02 Co06 Y02 130.18(10) 1_556 1_655 ?
Ge08 Sn07 Ge08 180.0 9_767 . ?
Ge08 Sn07 Co09 180.0 9_767 . ?
Ge08 Sn07 Co09 0.000(1) . . ?
Ge08 Sn07 Co09 0.000(1) 9_767 9_767 ?
Ge08 Sn07 Co09 180.0 . 9_767 ?
Co09 Sn07 Co09 180.0 . 9_767 ?
Ge08 Sn07 Nd01 90.000(1) 9_767 1_454 ?
Ge08 Sn07 Nd01 90.000(1) . 1_454 ?
Co09 Sn07 Nd01 90.000(1) . 1_454 ?
Co09 Sn07 Nd01 90.0 9_767 1_454 ?
Ge08 Sn07 Nd01 90.000(1) 9_767 . ?
Ge08 Sn07 Nd01 90.000(1) . . ?
Co09 Sn07 Nd01 90.000(1) . . ?
Co09 Sn07 Nd01 90.0 9_767 . ?
Nd01 Sn07 Nd01 180.0 1_454 . ?
Ge08 Sn07 Y01 90.000(1) 9_767 1_454 ?
Ge08 Sn07 Y01 90.000(1) . 1_454 ?
Co09 Sn07 Y01 90.000(1) . 1_454 ?
Co09 Sn07 Y01 90.0 9_767 1_454 ?
Nd01 Sn07 Y01 0.0 1_454 1_454 ?
Nd01 Sn07 Y01 180.0 . 1_454 ?
Ge08 Sn07 Nd01 90.000(1) 9_767 1_554 ?
Ge08 Sn07 Nd01 90.000(1) . 1_554 ?
Co09 Sn07 Nd01 90.0 . 1_554 ?
Co09 Sn07 Nd01 90.000(1) 9_767 1_554 ?
Nd01 Sn07 Nd01 89.35(13) 1_454 1_554 ?
Nd01 Sn07 Nd01 90.65(13) . 1_554 ?
Y01 Sn07 Nd01 89.4 1_454 1_554 ?
Ge08 Sn07 Y01 90.000(1) 9_767 1_554 ?
Ge08 Sn07 Y01 90.000(1) . 1_554 ?
Co09 Sn07 Y01 90.0 . 1_554 ?
Co09 Sn07 Y01 90.000(1) 9_767 1_554 ?
Nd01 Sn07 Y01 89.35(13) 1_454 1_554 ?
Nd01 Sn07 Y01 90.6 . 1_554 ?
Y01 Sn07 Y01 89.35(13) 1_454 1_554 ?
Nd01 Sn07 Y01 0.0 1_554 1_554 ?
Ge08 Sn07 Y01 90.000(1) 9_767 1_455 ?
Ge08 Sn07 Y01 90.000(1) . 1_455 ?
Co09 Sn07 Y01 90.0 . 1_455 ?
Co09 Sn07 Y01 90.0 9_767 1_455 ?
Nd01 Sn07 Y01 90.65(13) 1_454 1_455 ?
Nd01 Sn07 Y01 89.4 . 1_455 ?
Y01 Sn07 Y01 90.65(13) 1_454 1_455 ?
Nd01 Sn07 Y01 180.0 1_554 1_455 ?
Y01 Sn07 Y01 180.0 1_554 1_455 ?
Ge08 Sn07 Nd01 90.000(1) 9_767 1_455 ?
Ge08 Sn07 Nd01 90.000(1) . 1_455 ?
Co09 Sn07 Nd01 90.0 . 1_455 ?
Co09 Sn07 Nd01 90.0 9_767 1_455 ?
Nd01 Sn07 Nd01 90.65(13) 1_454 1_455 ?
Nd01 Sn07 Nd01 89.35(13) . 1_455 ?
Y01 Sn07 Nd01 90.6 1_454 1_455 ?
Nd01 Sn07 Nd01 180.0 1_554 1_455 ?
Y01 Sn07 Nd01 180.0 1_554 1_455 ?
Y01 Sn07 Nd01 0.0 1_455 1_455 ?
Co09 Ge08 Sn07 180.0 . . ?
Co09 Ge08 Ge08 180.0 . 9_767 ?
Sn07 Ge08 Ge08 0.000(1) . 9_767 ?
Co09 Ge08 Co09 180.0 . 9_767 ?
Sn07 Ge08 Co09 0.000(1) . 9_767 ?
Ge08 Ge08 Co09 0.000(1) 9_767 9_767 ?
Co09 Ge08 Ge04 53.74(15) . . ?
Sn07 Ge08 Ge04 126.26(15) . . ?
Ge08 Ge08 Ge04 126.26(15) 9_767 . ?
Co09 Ge08 Ge04 126.26(15) 9_767 . ?
Co09 Ge08 Ge04 53.74(15) . 1_655 ?
Sn07 Ge08 Ge04 126.26(15) . 1_655 ?
Ge08 Ge08 Ge04 126.26(15) 9_767 1_655 ?
Co09 Ge08 Ge04 126.26(15) 9_767 1_655 ?
Ge04 Ge08 Ge04 107.5(3) . 1_655 ?
Co09 Ge08 Ge05 53.88(15) . 1_655 ?
Sn07 Ge08 Ge05 126.12(15) . 1_655 ?
Ge08 Ge08 Ge05 126.12(15) 9_767 1_655 ?
Co09 Ge08 Ge05 126.12(15) 9_767 1_655 ?
Ge04 Ge08 Ge05 69.59(15) . 1_655 ?
Ge04 Ge08 Ge05 69.59(15) 1_655 1_655 ?
Co09 Ge08 Ge05 53.88(15) . 1_656 ?
Sn07 Ge08 Ge05 126.12(15) . 1_656 ?
Ge08 Ge08 Ge05 126.12(15) 9_767 1_656 ?
Co09 Ge08 Ge05 126.12(15) 9_767 1_656 ?
Ge04 Ge08 Ge05 69.59(15) . 1_656 ?
Ge04 Ge08 Ge05 69.59(15) 1_655 1_656 ?
Ge05 Ge08 Ge05 107.8(3) 1_655 1_656 ?
Co09 Ge08 Nd01 105.14(14) . . ?
Sn07 Ge08 Nd01 74.86(14) . . ?
Ge08 Ge08 Nd01 74.86(14) 9_767 . ?
Co09 Ge08 Nd01 74.86(14) 9_767 . ?
Ge04 Ge08 Nd01 134.57(13) . . ?
Ge04 Ge08 Nd01 66.87(9) 1_655 . ?
Ge05 Ge08 Nd01 135.11(13) 1_655 . ?
Ge05 Ge08 Nd01 66.39(8) 1_656 . ?
Co09 Ge08 Y01 105.14(14) . 1_454 ?
Sn07 Ge08 Y01 74.86(14) . 1_454 ?
Ge08 Ge08 Y01 74.86(14) 9_767 1_454 ?
Co09 Ge08 Y01 74.86(14) 9_767 1_454 ?
Ge04 Ge08 Y01 66.87(9) . 1_454 ?
Ge04 Ge08 Y01 134.57(13) 1_655 1_454 ?
Ge05 Ge08 Y01 66.39(8) 1_655 1_454 ?
Ge05 Ge08 Y01 135.11(13) 1_656 1_454 ?
Nd01 Ge08 Y01 149.7 . 1_454 ?
Co09 Ge08 Nd01 105.14(14) . 1_454 ?
Sn07 Ge08 Nd01 74.86(14) . 1_454 ?
Ge08 Ge08 Nd01 74.86(14) 9_767 1_454 ?
Co09 Ge08 Nd01 74.86(14) 9_767 1_454 ?
Ge04 Ge08 Nd01 66.87(9) . 1_454 ?
Ge04 Ge08 Nd01 134.57(13) 1_655 1_454 ?
Ge05 Ge08 Nd01 66.39(8) 1_655 1_454 ?
Ge05 Ge08 Nd01 135.11(13) 1_656 1_454 ?
Nd01 Ge08 Nd01 149.7(3) . 1_454 ?
Y01 Ge08 Nd01 0.0 1_454 1_454 ?
Ge08 Co09 Sn07 0.000(1) . . ?
Ge08 Co09 Ge04 112.06(18) . . ?
Sn07 Co09 Ge04 112.06(18) . . ?
Ge08 Co09 Ge04 112.06(18) . 1_655 ?
Sn07 Co09 Ge04 112.06(18) . 1_655 ?
Ge04 Co09 Ge04 135.9(4) . 1_655 ?
Ge08 Co09 Ge05 112.06(18) . 1_655 ?
Sn07 Co09 Ge05 112.06(18) . 1_655 ?
Ge04 Co09 Ge05 81.89(13) . 1_655 ?
Ge04 Co09 Ge05 81.89(13) 1_655 1_655 ?
Ge08 Co09 Ge05 112.06(18) . 1_656 ?
Sn07 Co09 Ge05 112.06(18) . 1_656 ?
Ge04 Co09 Ge05 81.89(13) . 1_656 ?
Ge04 Co09 Ge05 81.89(13) 1_655 1_656 ?
Ge05 Co09 Ge05 135.9(4) 1_655 1_656 ?
Ge08 Co09 Ge08 0.000(2) . 9_767 ?
Sn07 Co09 Ge08 0.0 . 9_767 ?
Ge04 Co09 Ge08 112.06(18) . 9_767 ?
Ge04 Co09 Ge08 112.06(18) 1_655 9_767 ?
Ge05 Co09 Ge08 112.06(18) 1_655 9_767 ?
Ge05 Co09 Ge08 112.06(18) 1_656 9_767 ?
Ge08 Co09 Y02 180.0 . 1_656 ?
Sn07 Co09 Y02 180.0 . 1_656 ?
Ge04 Co09 Y02 67.94(18) . 1_656 ?
Ge04 Co09 Y02 67.94(18) 1_655 1_656 ?
Ge05 Co09 Y02 67.94(18) 1_655 1_656 ?
Ge05 Co09 Y02 67.94(18) 1_656 1_656 ?
Ge08 Co09 Y02 180.0 9_767 1_656 ?
Ge08 Co09 Nd02 180.0 . 1_656 ?
Sn07 Co09 Nd02 180.0 . 1_656 ?
Ge04 Co09 Nd02 67.94(18) . 1_656 ?
Ge04 Co09 Nd02 67.94(18) 1_655 1_656 ?
Ge05 Co09 Nd02 67.94(18) 1_655 1_656 ?
Ge05 Co09 Nd02 67.94(18) 1_656 1_656 ?
Ge08 Co09 Nd02 180.0 9_767 1_656 ?
Y02 Co09 Nd02 0.0 1_656 1_656 ?
Ge08 Co09 Nd01 63.37(12) . . ?
Sn07 Co09 Nd01 63.37(12) . . ?
Ge04 Co09 Nd01 138.66(6) . . ?
Ge04 Co09 Nd01 65.53(10) 1_655 . ?
Ge05 Co09 Nd01 139.24(7) 1_655 . ?
Ge05 Co09 Nd01 65.12(9) 1_656 . ?
Ge08 Co09 Nd01 63.37(12) 9_767 . ?
Y02 Co09 Nd01 116.63(12) 1_656 . ?
Nd02 Co09 Nd01 116.63(12) 1_656 . ?
Ge08 Co09 Nd01 63.37(12) . 1_454 ?
Sn07 Co09 Nd01 63.37(12) . 1_454 ?
Ge04 Co09 Nd01 65.53(10) . 1_454 ?
Ge04 Co09 Nd01 138.66(6) 1_655 1_454 ?
Ge05 Co09 Nd01 65.12(9) 1_655 1_454 ?
Ge05 Co09 Nd01 139.24(7) 1_656 1_454 ?
Ge08 Co09 Nd01 63.37(12) 9_767 1_454 ?
Y02 Co09 Nd01 116.63(12) 1_656 1_454 ?
Nd02 Co09 Nd01 116.63(12) 1_656 1_454 ?
Nd01 Co09 Nd01 126.7(2) . 1_454 ?
 
_refine_diff_density_max    8.700
_refine_diff_density_min   -2.733
_refine_diff_density_rms    0.510

_shelx_res_file
;

    shelx.res created by SHELXL-2014/7


TITL scd2660_a.res in Cmmm
REM Old TITL scd2660 in Cmmm
REM SHELXT solution in Cmmm: R1 0.131, Rweak 0.002, Alpha 0.020
REM <I/s>   0.000 for    0 systematic absences,  Orientation as input
REM Formula found by SHELXT:  Co Ge2 Nd3 Y6

CELL  0.71073   4.2150  25.7755   4.2629   90.000   90.000   90.000
ZERR    2.000   0.0072   0.0461   0.0058    0.000    0.000    0.000
LATT  7
SYMM -X, -Y, Z
SYMM -X, Y, -Z
SYMM X, -Y, -Z
SFAC CO GE ND Y SN
UNIT 5.03 13.03 4.77 1.23 0.97
TEMP 25
SIZE 0.02 0.06 0.08
L.S. 10
EADP ND02 Y02
EXYZ ND02 Y02
EADP ND01 Y01
EXYZ ND01 Y01
BOND
ACTA
LIST 4
FMAP 2
PLAN 20
WGHT    0.029500   13.855700
EXTI    0.001084
FVAR       0.05010   0.51708   0.74212   0.89931
ND01  3    1.500000    0.500000    1.500000    40.12500    0.01032    0.00906 =
         0.01202    0.00000    0.00000    0.00000
Y01   4    1.500000    0.500000    1.500000   -40.12500    0.01032    0.00906 =
         0.01202    0.00000    0.00000    0.00000
ND02  3    0.000000    0.315508    0.000000    30.25000    0.00868    0.00847 =
         0.00960    0.00000    0.00000    0.00000
Y02   4    0.000000    0.315508    0.000000   -30.25000    0.00868    0.00847 =
         0.00960    0.00000    0.00000    0.00000
GE03  2    0.500000    0.279500    0.500000    10.25000    0.00628    0.01233 =
         0.01092    0.00000    0.00000    0.00000
GE04  2    0.500000    0.408558    1.000000    10.25000    0.01721    0.01358 =
         0.00836    0.00000    0.00000    0.00000
GE05  2    0.000000    0.408181    0.500000    10.25000    0.00801    0.01434 =
         0.01712    0.00000    0.00000    0.00000
CO06  1    0.500000    0.369516    0.500000    10.25000    0.01100    0.01051 =
         0.01165    0.00000    0.00000    0.00000
SN07  5    1.000000    0.500000    1.000000   -20.12500    0.01232    0.05356 =
         0.01290    0.00000    0.00000    0.00000
GE08  2    1.000000    0.468533    1.000000    20.12500    0.01574    0.02420 =
         0.01990    0.00000    0.00000    0.00000
CO09  1    1.000000    0.441691    1.000000    20.12500    0.05150    0.01557 =
         0.04917    0.00000    0.00000    0.00000
HKLF 4

REM  scd2660_a.res in Cmmm
REM R1 =  0.0360 for     784 Fo > 4sig(Fo)  and  0.0670 for all    1164 data
REM     39 parameters refined using      0 restraints

END

WGHT      0.0295     13.8557

REM Highest difference peak  8.700,  deepest hole -2.733,  1-sigma level  0.510
Q1    1   0.5000  0.3001  0.5000  10.25000  0.05    8.70
Q2    1   0.0000  0.2958  0.0000  10.25000  0.05    2.70
Q3    1   0.5000  0.3922  1.0000  10.25000  0.05    2.67
Q4    1  -0.5000  0.3200  0.0000  10.25000  0.05    2.00
Q5    1   0.5000  0.4870  1.0000  10.25000  0.05    1.94
Q6    1   0.5000  0.2347  0.5000  10.25000  0.05    1.90
Q7    1   1.5624  0.5322  1.5000  10.50000  0.05    1.80
Q8    1   0.0550  0.3699  0.0000  10.50000  0.05    1.80
Q9    1   0.5000  0.4220  1.0000  10.25000  0.05    1.79
Q10   1   0.0000  0.2738  0.0000  10.25000  0.05    1.77
Q11   1   1.5000  0.5229  1.5000  10.25000  0.05    1.75
Q12   1   0.5000  0.2788  0.5945  10.50000  0.05    1.75
Q13   1   0.0000  0.2899  0.1511  10.50000  0.05    1.71
Q14   1   1.0000  0.3818  1.0000  10.25000  0.05    1.67
Q15   1   0.5000  0.3975  0.7757  10.50000  0.05    1.65
Q16   1   0.5000  0.3576  0.6726  10.50000  0.05    1.65
Q17   1   0.3842  0.2794  0.5000  10.50000  0.05    1.59
Q18   1   0.0000  0.3450  0.0000  10.25000  0.05    1.59
Q19   1   0.5000  0.3091  0.6687  10.50000  0.05    1.54
Q20   1   0.0536  0.3979  0.5000  10.50000  0.05    1.52
;
_shelx_res_checksum    3158

_shelx_hkl_file
;
   2   0   0  892.23   52.12
  -2   0   0  959.42   54.16
  -2   0   0 1000.00   54.56
  -2   0   0  937.18   53.76
  -2   0   0  947.56   52.16
  -2   0   0  857.20   52.30
  -2   0   0  887.69   52.45
   2   0   0  926.06   53.88
   2   0   0  991.22   54.62
   2   0   0  943.28   53.58
   2   0   0  899.04   51.94
   2   0   0  906.46   51.96
   4   0   0  434.80   26.89
   4   0   0  413.30   27.35
   4   0   0  434.41   26.26
   4   0   0  414.66   23.48
   4   0   0  407.00   23.26
   4   0   0  420.35   23.60
   4   0   0  406.46   23.29
  -4   0   0  402.95   26.67
  -4   0   0  416.60   23.60
  -4   0   0  377.99   23.06
  -4   0   0  370.01   23.10
  -4   0   0  393.01   23.46
  -4   0   0  399.76   23.94
  -4   0   0  410.44   24.19
  -4   0   0  398.81   26.95
  -4   0   0  443.28   27.58
  -6   0   0  135.59    9.18
   6   0   0  145.80    8.75
   6   0   0  150.88    9.16
   6   0   0  140.09    8.74
   6   0   0  139.77    9.13
  -6   0   0  130.89    9.94
  -6   0   0  141.96    9.82
   8   0   0   49.30    4.27
   8   0   0   44.16    3.75
   8   0   0   44.04    4.09
  -8   0   0   43.72    5.03
  -8   0   0   46.99    5.02
   1   1   0    0.61    0.79
   1   1   0    2.33    0.38
   1  -1   0    2.89    0.43
   1  -1   0    3.12    0.45
   1  -1   0    3.55    1.05
  -1  -1   0    3.05    1.10
  -1  -1   0    2.68    0.58
  -1   1   0    0.91    0.75
  -1   1   0    2.15    1.04
  -1   1   0    3.68    1.07
  -1   1   0    2.82    0.44
  -1   1   0    3.34    0.59
   1  -1   0    2.53    1.00
   1  -1   0    2.48    1.06
   1   1   0    2.46    1.06
   1   1   0    2.26    0.90
  -1  -1   0    1.62    1.10
   1   1   0    2.07    0.33
  -1  -1   0    3.88    1.16
  -3   1   0    0.17    0.54
  -3   1   0    0.98    0.74
  -3   1   0    0.44    0.36
  -3   1   0    0.28    0.73
  -3  -1   0    2.35    0.95
  -3  -1   0    0.96    0.58
  -3   1   0    0.65    0.40
   3   1   0    0.55    0.39
   3   1   0    0.23    0.35
   3   1   0    1.07    0.56
   3  -1   0   -0.08    2.33
   3  -1   0    1.10    2.60
   3  -1   0    2.18    2.26
  -3   1   0   -2.98    2.64
  -3   1   0    0.05    0.46
   3   1   0    1.36    2.49
   3   1   0    0.85    2.77
   3   1   0    1.46    2.49
  -3  -1   0   -0.19    0.48
  -3   1   0   -0.19    2.42
  -3  -1   0    0.29    0.33
  -3  -1   0    1.15    0.72
   3  -1   0    0.53    0.45
   3  -1   0    0.93    0.42
   3  -1   0    0.58    0.50
   3  -1   0    0.27    0.36
  -3  -1   0    0.24    2.60
  -3  -1   0    1.02    2.68
   3   1   0    0.84    0.38
  -3  -1   0    0.37    0.36
  -3   1   0    3.34    2.99
  -3  -1   0   -1.92    2.59
   5  -1   0   -0.05    0.64
   5  -1   0   -0.22    0.63
   5  -1   0   -4.56    5.28
   5  -1   0    0.03    0.65
  -5  -1   0   -4.35    7.26
  -5  -1   0    5.06    6.28
   5   1   0    3.74    6.56
   5   1   0    0.46    6.10
   5   1   0   -0.67    0.56
  -5   1   0    0.25    1.52
   5   1   0    0.13    0.61
   5   1   0    0.36    0.70
   5   1   0    5.99    5.53
  -5  -1   0   -0.95    0.74
  -5  -1   0    0.24    0.57
  -5  -1   0    1.26    1.26
  -5  -1   0    0.35    0.87
  -5  -1   0    1.79    1.47
  -5   1   0    5.68    6.69
  -5   1   0   14.69    6.34
  -5   1   0   -9.88    6.88
  -5   1   0   -1.08    0.81
  -5   1   0    0.22    0.56
  -5   1   0    0.52    0.63
  -5   1   0    1.37    1.40
   5   1   0   -0.01    0.54
   5  -1   0   -1.21    5.87
   5   1   0   -0.15    0.60
   5  -1   0    0.33    0.52
  -5   1   0   -0.19    0.86
   5  -1   0    0.77    7.04
  -5  -1   0   -1.07    7.39
   7  -1   0   -0.30    1.06
  -7   1   0   -1.67    2.65
  -7  -1   0    0.78    1.68
   7   1   0    0.68    1.14
   7   1   0   -0.48    1.02
   7  -1   0   -0.74    1.07
   7  -1   0    0.30    1.21
  -7   1   0   -1.30    1.73
  -7   1   0    0.36    1.65
   7   1   0    0.95    1.27
   7   1   0    0.52    1.21
  -7  -1   0   -0.71    1.76
  -7  -1   0   -1.49    2.47
   7  -1   0   -0.15    1.24
  -2  -2   0    1.17    0.57
  -2   2   0   -0.64    1.50
   2   2   0    0.78    0.40
   2  -2   0    1.25    0.35
  -2  -2   0    0.47    0.48
  -2  -2   0    1.20    0.39
  -2   2   0    1.96    0.61
  -2   2   0    0.99    0.59
   2  -2   0    0.80    1.25
   2  -2   0    1.52    2.01
   2  -2   0    0.98    1.27
  -2  -2   0    0.40    1.91
  -2  -2   0    2.89    1.81
   2   2   0    0.88    0.39
   2   2   0    1.07    0.32
  -2  -2   0    1.08    0.72
  -2   2   0    0.95    0.40
  -2   2   0    0.81    0.40
  -2   2   0    0.20    1.64
   2   2   0   -0.36    1.41
   2  -2   0    0.62    0.35
   2   2   0    0.67    0.33
  -2   2   0   -0.29    1.46
   2   2   0    2.38    1.62
   2   2   0   -0.58    1.56
  -2  -2   0   -0.21    1.50
   2  -2   0    0.16    0.44
   2  -2   0    0.83    0.39
   4  -2   0    1.04    0.50
   4   2   0   -0.32    0.42
   4   2   0    0.77    0.61
   4   2   0    0.14    0.48
   4   2   0   -1.93    3.70
  -4   2   0   -3.49    3.36
  -4  -2   0    1.34    4.25
  -4   2   0    0.56    4.34
   4  -2   0   -0.87    0.50
  -4   2   0    0.21    0.85
   4  -2   0   -0.15    3.42
  -4  -2   0   -0.29    1.00
   4   2   0   -1.47    3.49
   4   2   0   -2.36    3.92
   4   2   0    0.78    0.57
   4  -2   0   -1.45    4.14
  -4   2   0    0.34    0.44
  -4  -2   0    0.46    0.69
   4  -2   0   -0.32    0.37
  -4   2   0   -0.25    4.03
   4  -2   0    0.55    0.52
  -4   2   0   -1.07    0.92
   4  -2   0   -2.54    3.24
  -4  -2   0    6.76    4.64
  -4  -2   0   -0.26    0.65
  -4   2   0    0.01    0.57
  -4  -2   0    0.05    0.41
  -4   2   0   -0.18    0.45
  -4  -2   0    3.40    4.30
  -4   2   0    0.83    0.68
  -4  -2   0   -0.77    0.92
  -6   2   0    0.46    1.84
   6  -2   0   -1.06    0.84
   6   2   0   -1.41    0.77
   6   2   0    0.81    0.97
   6  -2   0    0.38    0.86
   6   2   0    0.61    0.77
  -6  -2   0    1.12    1.37
  -6  -2   0    0.38    1.38
   6  -2   0    0.16    0.98
  -6  -2   0   -1.50    2.43
  -6  -2   0   -1.35    1.80
  -6   2   0   -0.14    1.26
   6  -2   0   -0.08    0.74
   6   2   0    0.31    0.88
  -6   2   0    0.46    1.18
   8   2   0    3.23    1.69
   8  -2   0    0.75    1.51
   8   2   0   -1.07    1.39
  -8  -2   0    1.07    2.10
   8  -2   0    0.85    1.39
   8  -2   0    1.85    1.40
  -8  -2   0    3.62    2.41
  -8   2   0   -0.40    2.23
  -8   2   0   -1.18    2.68
   8   2   0   -0.53    1.43
  -1   3   0   14.38    1.11
   1   3   0   17.58    1.94
   1  -3   0   15.17    1.01
   1   3   0   18.71    1.82
  -1  -3   0   15.32    1.95
  -1   3   0   13.91    1.16
  -1  -3   0   14.81    1.87
   1  -3   0   13.01    1.59
   1   3   0   15.50    0.96
  -1   3   0   15.98    1.75
  -1  -3   0   16.85    2.07
   1  -3   0   15.69    1.61
   1   3   0   11.70    1.83
   1   3   0   14.28    0.95
   1  -3   0   13.74    1.10
  -1  -3   0   15.04    1.39
   1  -3   0   14.44    1.75
   1   3   0   14.20    1.02
  -3   3   0    6.76    0.84
  -3   3   0    9.58    3.52
   3   3   0   10.94    1.34
   3  -3   0    7.24    2.57
   3  -3   0    8.06    1.12
  -3  -3   0   10.97    1.42
  -3   3   0    8.98    3.46
   3   3   0    8.28    0.88
   3  -3   0    9.02    1.13
  -3   3   0   11.73    3.49
  -3   3   0   10.63    1.73
  -3   3   0   10.25    1.32
   3  -3   0    8.98    1.14
  -3  -3   0    7.76    1.30
  -3  -3   0    6.99    1.32
  -3  -3   0    8.98    1.68
   3   3   0    8.65    1.19
   3   3   0    8.32    0.95
   3  -3   0    4.12    2.38
  -3   3   0   10.75    1.27
  -3   3   0   12.94    1.75
  -3   3   0    7.76    0.93
   3   3   0    8.38    3.02
  -3  -3   0    7.28    3.11
  -3  -3   0   11.07    3.28
  -3  -3   0    5.85    0.71
   3   3   0    6.53    3.05
  -3  -3   0    6.65    0.79
   3  -3   0   14.08    4.10
   3  -3   0    8.30    1.25
  -3  -3   0   11.44    4.08
   3   3   0   11.16    3.55
   5  -3   0   -0.11    6.72
   5  -3   0    3.79    0.92
   5  -3   0    4.44    1.10
   5   3   0    6.29    1.01
  -5   3   0    5.06    1.75
  -5   3   0    3.86    1.23
  -5   3   0    7.62    1.99
   5  -3   0    9.06    6.75
  -5  -3   0    9.10    7.03
  -5  -3   0    2.07    1.52
   5   3   0    5.82    1.20
   5   3   0    9.51    6.03
  -5  -3   0    1.08    7.30
  -5   3   0    6.80    7.17
  -5   3   0   -0.95    8.20
  -5  -3   0    4.90    1.24
  -5   3   0    6.78    1.43
   5   3   0    6.29    1.04
   5   3   0    1.72    6.89
   5  -3   0    7.42    1.20
   5  -3   0    6.08    1.33
  -5  -3   0    7.41    7.49
  -5   3   0    5.79    0.90
  -5  -3   0    6.69    1.90
   5   3   0    4.27    6.12
   5  -3   0   -3.10    9.08
  -5  -3   0    7.19    1.75
   5   3   0    4.97    1.07
  -5   3   0    4.97    6.24
  -5   3   0    4.19    0.85
   5   3   0    5.15    1.08
   7   3   0    0.60    1.18
   7   3   0    0.16    1.18
   7  -3   0    0.81    1.06
   7   3   0    3.05    1.12
   7  -3   0    0.97    1.24
  -7  -3   0    2.61    1.79
  -7   3   0    1.01    1.85
  -7  -3   0    4.00    2.01
  -7  -3   0    5.15    2.76
   7  -3   0   -0.23    1.20
  -7   3   0    1.69    1.84
   7   3   0    3.84    1.29
   7  -3   0    2.13    1.17
   0  -4   0    0.28    0.17
   0   4   0    1.19    0.27
   0  -4   0    0.99    0.26
   0   4   0    1.03    0.11
   0  -4   0    1.38    0.29
   0  -4   0    0.98    0.27
   0  -4   0    0.77    0.09
   0   4   0    0.86    0.14
   0   4   0    0.56    0.22
  -2   4   0    0.75    1.46
   2  -4   0    0.74    0.31
   2   4   0    1.75    1.60
   2   4   0    0.17    0.33
   2   4   0    0.14    0.22
  -2  -4   0   -0.93    1.48
   2   4   0    0.46    0.31
  -2   4   0    0.74    0.39
  -2   4   0    0.19    0.25
   2  -4   0    0.01    0.36
   2   4   0    0.06    0.22
  -2  -4   0   -0.38    1.49
  -2  -4   0    0.06    1.92
   2  -4   0   -0.17    0.28
  -2  -4   0    0.79    0.62
  -2  -4   0    0.21    0.51
  -2   4   0    0.20    0.51
   2  -4   0    1.44    1.18
   2  -4   0   -0.60    1.64
   2  -4   0    2.18    1.34
  -2  -4   0    0.13    0.55
   2   4   0   -1.17    1.58
  -2   4   0    1.66    1.52
  -2   4   0    0.01    0.33
  -2   4   0   -0.14    0.41
   2   4   0    2.42    1.70
  -2   4   0    0.30    1.31
  -2  -4   0   -0.02    0.45
   2   4   0    0.52    0.34
   2   4   0    0.32    0.25
  -2   4   0   -0.04    0.29
  -4  -4   0   -2.97    4.62
   4   4   0    0.25    4.12
  -4  -4   0    1.37    4.62
  -4   4   0   -0.11    0.72
   4   4   0   -0.13    0.55
  -4   4   0   -7.13    4.12
  -4  -4   0   -0.55    0.43
  -4   4   0    0.68    0.92
  -4   4   0   -0.04    0.97
  -4  -4   0    0.28    1.02
  -4  -4   0   -3.19    4.35
  -4   4   0    5.96    4.52
   4  -4   0   -0.38    0.47
   4  -4   0   -0.47    0.50
  -4   4   0   -0.25    0.58
  -4   4   0    0.01    0.48
  -4   4   0    0.53    0.48
   4   4   0   -0.30    0.49
   4   4   0    0.35    0.45
   4   4   0    1.10    0.58
   4   4   0    0.72    0.51
  -4  -4   0    0.01    0.65
   4  -4   0   -0.10    0.42
   4  -4   0   -4.26    3.24
   4  -4   0    0.45    4.28
   4  -4   0    4.85    3.59
   4   4   0    5.01    4.32
  -4  -4   0   -0.30    0.72
  -4  -4   0   -0.70    0.92
   4   4   0    2.18    3.80
   4  -4   0    0.76    0.54
  -4   4   0    0.34    4.11
   6   4   0   -0.82    0.89
   6  -4   0   -0.04    0.85
  -6   4   0   -0.20    1.26
  -6  -4   0    1.61    1.99
  -6   4   0    3.32    2.03
  -6   4   0    0.32    0.79
  -6  -4   0    0.05    1.21
   6   4   0    1.26    0.86
   6  -4   0    0.16    0.93
  -6  -4   0    3.06    2.14
  -6   4   0    1.19    1.14
  -6  -4   0   -1.24    1.19
   6  -4   0    0.15    0.82
   6   4   0   -0.81    0.86
   6   4   0    1.68    1.03
   6  -4   0    0.33    0.76
   8  -4   0    2.42    1.39
   8   4   0    1.60    1.51
  -8   4   0    1.23    2.11
   8  -4   0   -1.15    1.48
  -8  -4   0   -0.47    2.25
  -8   4   0   -1.54    2.16
   8   4   0    1.88    1.56
   8   4   0   -0.90    1.43
   8  -4   0    0.47    1.35
  -8  -4   0    0.61    2.19
   1   5   0   10.29    1.64
  -1   5   0   11.74    0.87
   1   5   0   13.66    1.65
  -1  -5   0   15.95    1.91
   1  -5   0   11.03    1.39
   1   5   0   11.36    0.80
   1  -5   0   11.87    1.62
   1  -5   0   12.85    1.39
  -1  -5   0   15.83    2.04
  -1   5   0   11.25    0.96
   1   5   0   12.26    1.46
  -1  -5   0   16.60    1.82
   1  -5   0   11.91    0.94
   1   5   0   12.12    0.85
   1   5   0   10.98    0.78
  -1  -5   0   11.09    1.30
  -3   5   0    5.51    2.80
  -3   5   0    2.64    2.81
   3   5   0    3.74    2.99
   3   5   0    8.54    3.39
   3  -5   0    8.10    3.69
   3   5   0    4.00    0.61
  -3   5   0    6.91    1.35
   3  -5   0    3.68    0.81
  -3  -5   0    4.28    0.97
   3   5   0    4.30    0.76
  -3  -5   0    4.53    1.08
   3   5   0    5.21    2.73
   3  -5   0    2.30    0.84
   3  -5   0    3.48    0.81
   3   5   0    2.24    0.66
  -3  -5   0    5.65    3.04
  -3  -5   0    5.42    3.73
   3  -5   0    5.55    2.77
  -3   5   0    3.76    0.83
   3  -5   0    3.75    0.79
  -3  -5   0    2.24    2.96
   3  -5   0    1.98    2.31
   3   5   0    4.75    0.89
  -3  -5   0    4.19    1.29
  -3   5   0    8.38    3.15
  -3   5   0    5.28    0.86
  -3   5   0    3.10    0.93
  -3  -5   0    3.63    1.20
  -3   5   0    4.86    0.65
   3   5   0    4.63    0.69
   5  -5   0    0.64    0.62
  -5  -5   0   -0.45    1.36
   5   5   0   -0.84    6.74
  -5   5   0    0.78    0.96
  -5   5   0   -0.21    0.60
  -5  -5   0   -6.98    7.48
  -5  -5   0    0.23    0.97
   5   5   0    0.96    0.74
  -5   5   0    1.02    1.43
   5   5   0    1.29    0.73
   5   5   0    1.17    0.78
  -5  -5   0    1.18    1.03
   5   5   0    0.44    0.59
   5   5   0    1.59    5.62
   5  -5   0    0.72    0.71
  -5   5   0    0.72    0.59
  -5  -5   0    1.18    7.01
   5  -5   0    1.59    0.77
  -5  -5   0    0.37    1.32
  -5   5   0    0.50    0.83
   5   5   0    1.57    0.81
  -5  -5   0   -4.36    7.84
   5   5   0   -5.32    6.29
   5  -5   0    0.81    0.66
  -7   5   0   -1.36    1.86
  -7  -5   0    1.97    1.84
   7   5   0    0.58    1.16
   7  -5   0    0.89    1.33
   7  -5   0    0.30    1.03
   7   5   0    0.93    1.14
   7  -5   0    0.00    1.09
  -7  -5   0   -1.29    2.60
   7   5   0    0.53    1.24
   7   5   0    0.69    1.05
  -7  -5   0   -0.12    1.62
   7  -5   0   -1.32    1.16
  -7   5   0    0.43    1.65
   0  -6   0    5.36    0.65
   0  -6   0    1.87    0.44
   0  -6   0    3.12    0.23
   0   6   0    2.80    0.27
   0   6   0    2.75    0.33
   0   6   0    3.66    0.55
   0  -6   0    4.46    0.63
   0  -6   0    4.61    0.67
   0   6   0    4.29    0.65
   0   6   0    3.14    0.51
   2   6   0    3.06    0.54
  -2  -6   0    3.83    1.79
  -2   6   0    3.08    0.61
  -2   6   0    2.64    0.77
   2   6   0    1.42    1.73
   2  -6   0    1.38    1.24
  -2   6   0    4.02    1.77
  -2   6   0    2.99    0.44
  -2   6   0    3.17    0.65
  -2  -6   0    0.20    1.61
  -2  -6   0    3.35    0.82
  -2  -6   0    2.31    0.95
   2   6   0    2.92    0.42
   2   6   0    2.70    0.52
   2   6   0    2.12    0.42
   2  -6   0    3.98    0.74
  -2   6   0    1.67    1.46
  -2   6   0    4.68    1.72
  -2  -6   0    3.30    0.97
  -2   6   0    2.46    0.50
  -2   6   0    4.20    0.68
  -2   6   0    2.98    0.70
   2   6   0    5.67    2.20
   2  -6   0    2.43    1.50
  -2  -6   0    2.24    2.03
   2  -6   0    3.19    0.58
  -2  -6   0    2.20    0.63
   2   6   0    3.19    0.46
   2  -6   0    1.91    1.35
   2   6   0    2.42    1.75
   2  -6   0    3.16    0.59
   2   6   0    2.42    0.48
   4   6   0    4.68    4.67
   4   6   0    3.37    0.69
   4   6   0    3.76    0.88
   4   6   0    2.48    0.64
  -4   6   0    3.08    0.71
  -4  -6   0    5.35    4.72
  -4   6   0    2.65    3.95
  -4  -6   0    3.25    4.89
  -4   6   0    6.78    4.70
  -4  -6   0    3.70    1.13
  -4  -6   0    0.58    1.04
  -4  -6   0    1.18    5.21
  -4   6   0    4.32    1.03
   4   6   0    1.13    4.40
  -4   6   0    3.59    0.85
   4   6   0    2.36    0.86
   4  -6   0    3.03    0.93
   4   6   0    2.88    3.99
   4  -6   0    3.04    0.84
  -4   6   0    2.48    1.02
   4  -6   0    8.05    4.81
  -4   6   0    2.28    1.17
   4  -6   0   -0.95    3.49
   4  -6   0    2.11    0.73
  -4   6   0    1.64    0.58
   4  -6   0   -0.04    3.45
  -4  -6   0    1.79    0.95
   4   6   0    2.48    0.81
   4  -6   0    3.18    1.02
  -4   6   0    3.25    4.47
  -4  -6   0    2.42    1.09
  -6  -6   0    3.00    2.21
   6  -6   0    2.17    0.98
  -6   6   0    0.63    1.37
  -6  -6   0    0.14    1.40
  -6   6   0    2.40    1.32
   6   6   0    1.43    0.97
  -6  -6   0    4.53    2.35
   6   6   0    2.98    1.00
   6   6   0    0.73    1.00
  -6   6   0    2.04    2.14
  -6  -6   0    1.65    1.25
   6  -6   0    3.51    1.17
   6  -6   0    2.36    1.30
  -6   6   0    2.00    0.88
   6  -6   0    2.01    0.91
   6   6   0    3.14    1.26
  -8  -6   0   -2.18    2.17
   8  -6   0   -0.09    1.67
  -8   6   0    0.89    2.18
   8  -6   0    1.59    1.49
  -8   6   0   -1.46    2.16
   8  -6   0    1.20    1.31
  -8  -6   0   -1.63    2.26
   8   6   0    3.88    1.59
   8   6   0    2.34    1.63
   8   6   0   -1.42    1.47
  -1   7   0   15.82    1.25
   1   7   0   19.12    2.00
   1   7   0   16.05    1.06
   1  -7   0   17.41    1.62
  -1  -7   0   13.37    1.47
  -1  -7   0   15.20    1.60
  -1   7   0   11.41    1.57
   1  -7   0   15.49    1.17
   1   7   0   16.12    1.02
  -1   7   0   15.57    1.55
   1  -7   0   17.59    1.14
  -1   7   0   17.35    1.66
  -1  -7   0   13.24    1.06
   1  -7   0   13.92    1.59
  -1  -7   0   15.89    1.13
   1   7   0   14.04    1.79
   1   7   0   15.51    1.01
   1  -7   0   16.64    1.68
  -1  -7   0   17.60    1.98
   1   7   0   17.01    1.07
   1   7   0   15.73    1.05
  -1   7   0   16.31    1.23
  -1  -7   0   16.37    1.80
  -1   7   0   15.34    1.05
  -1   7   0   15.56    1.08
   3  -7   0    8.97    1.21
  -3   7   0   12.12    3.57
  -3   7   0    6.42    0.97
  -3  -7   0    7.62    1.33
  -3   7   0    2.49    3.13
  -3   7   0    6.92    0.85
  -3   7   0    7.79    1.44
  -3  -7   0    3.22    3.47
   3  -7   0    9.34    3.17
   3  -7   0    4.49    2.53
  -3   7   0    8.37    1.00
   3   7   0    8.43    3.61
  -3   7   0   10.09    3.28
   3  -7   0    8.33    1.23
   3  -7   0    6.00    2.54
   3   7   0    6.61    0.89
   3   7   0    8.08    0.90
  -3  -7   0   10.73    3.55
   3   7   0    8.83    3.41
  -3  -7   0    7.61    1.41
   3   7   0    7.16    1.08
  -3  -7   0    3.80    3.13
  -3  -7   0   10.86    1.74
  -3   7   0    6.78    1.27
  -3  -7   0   10.02    1.83
   3   7   0    8.33    0.97
   3   7   0   12.11    3.22
   3  -7   0    5.90    1.01
   3  -7   0    5.69    1.16
   3   7   0    7.77    1.04
  -5  -7   0    3.33    7.77
  -5  -7   0    2.37    1.14
  -5  -7   0    5.07    1.36
  -5   7   0    3.99    1.11
  -5   7   0    5.41    1.73
   5   7   0    3.82    0.98
  -5   7   0    4.73    1.37
   5   7   0    2.47    0.97
   5   7   0    2.38    0.84
  -5  -7   0   -0.68    8.27
   5   7   0    2.42    7.81
  -5  -7   0    6.95    8.81
   5  -7   0    3.31    1.04
  -5  -7   0    4.06    1.86
  -5   7   0    3.45    0.87
   5   7   0   16.94    7.43
  -5  -7   0    0.83    1.40
   5   7   0    2.52    0.84
   5  -7   0    2.15    0.79
  -5   7   0    3.94    0.87
   5   7   0    9.50    6.61
   5  -7   0    3.03    0.83
   5  -7   0    2.62    1.04
  -7  -7   0    1.92    1.70
   7   7   0    1.60    1.39
  -7   7   0    5.05    2.12
   7   7   0    1.60    1.31
   7  -7   0    1.22    1.07
   7   7   0    1.45    1.35
  -7   7   0    4.87    1.88
   7  -7   0    0.74    1.06
   7   7   0    1.75    1.13
   7  -7   0    0.39    1.22
  -7  -7   0    0.98    1.94
  -7  -7   0   -0.29    2.75
   7  -7   0    1.14    1.32
   0   8   0    0.14    0.35
   0  -8   0    0.20    0.31
   0  -8   0    0.43    0.35
   0  -8   0    0.30    0.35
   0   8   0    0.04    0.35
   0   8   0   -0.08    0.36
   0  -8   0    0.33    0.09
   0   8   0    0.19    0.13
   0  -8   0   -0.05    0.35
   0   8   0    0.78    0.22
   2   8   0   -0.08    0.20
  -2  -8   0   -2.90    1.54
   2  -8   0   -0.20    0.25
   2   8   0    0.47    0.25
   2   8   0    0.03    0.28
  -2   8   0    0.76    0.40
   2   8   0   -0.52    1.49
  -2  -8   0   -0.06    0.48
  -2   8   0    0.08    0.43
  -2   8   0    0.08    0.31
   2   8   0   -0.37    1.56
   2  -8   0    0.10    1.19
   2   8   0   -0.08    0.25
   2   8   0    0.24    0.19
   2  -8   0    0.14    0.24
   2  -8   0    0.74    0.46
   2  -8   0    0.34    1.09
  -2   8   0    0.19    0.51
  -2  -8   0    0.89    0.76
   2  -8   0   -0.32    1.21
   2   8   0    0.19    0.31
   2   8   0   -0.55    1.60
  -2   8   0    0.61    0.42
  -2  -8   0    0.08    0.45
  -2  -8   0    1.54    0.81
  -2  -8   0    0.14    1.69
  -2  -8   0    1.20    1.85
  -2   8   0   -0.20    0.20
   4   8   0    1.02    4.36
  -4  -8   0    0.18    4.96
   4  -8   0   -0.24    0.45
  -4  -8   0    0.19    0.73
  -4   8   0   -2.21    4.82
  -4   8   0    0.59    0.48
  -4   8   0    0.32    0.64
   4   8   0    0.33    0.59
   4   8   0    1.97    4.96
  -4  -8   0   -0.83    1.09
  -4  -8   0    2.62    4.93
  -4   8   0   -0.09    1.02
  -4  -8   0   -8.95    4.80
   4  -8   0   -1.95    4.72
  -4  -8   0    0.25    0.71
   4  -8   0   -0.34    0.55
  -4   8   0   -3.26    3.75
  -4   8   0    0.90    4.93
  -4   8   0    0.08    0.50
  -4  -8   0    0.68    1.23
   4   8   0    0.79    0.56
   4   8   0   -1.01    4.02
   4   8   0    0.04    0.54
   4   8   0   -0.24    0.49
  -4   8   0    1.15    0.80
   4  -8   0   -0.09    0.66
   4   8   0    0.22    0.66
   4  -8   0   -0.11    0.67
   4  -8   0    4.26    3.58
   4  -8   0   -4.19    3.50
   6   8   0   -0.32    0.81
  -6  -8   0    0.59    1.25
   6  -8   0    0.08    1.00
  -6   8   0    0.47    1.30
   6   8   0    0.54    1.02
  -6  -8   0   -1.30    2.21
   6  -8   0    0.17    0.98
  -6   8   0   -0.62    1.40
  -6   8   0    0.34    0.76
   6   8   0    0.28    0.95
   6  -8   0    0.29    0.80
  -6  -8   0   -1.86    1.35
  -6   8   0   -0.80    0.86
   6  -8   0   -0.24    0.78
   6   8   0    1.87    1.01
  -6  -8   0    0.30    1.92
  -8   8   0   -2.64    2.13
   8  -8   0   -0.20    1.34
  -8   8   0   -0.51    2.23
   8  -8   0   -0.34    1.56
   8   8   0   -1.03    1.49
   8   8   0    0.36    1.86
  -8  -8   0   -0.71    2.16
   8   8   0   -0.64    1.63
  -8  -8   0    1.99    2.36
   8  -8   0    0.77    1.39
  -1   9   0  205.63   11.73
  -1  -9   0  205.73   12.39
   1  -9   0  208.31   12.40
  -1   9   0  210.31   11.99
   1   9   0  210.66   11.69
   1   9   0  206.18   11.65
  -1  -9   0  199.94   11.74
  -1  -9   0  214.07   12.57
   1   9   0  207.55   11.66
   1  -9   0  205.16   11.81
  -1   9   0  213.31   12.25
   1  -9   0  218.57   12.47
  -1  -9   0  185.08   12.31
   1  -9   0  212.08   12.30
  -1   9   0  205.61   11.81
  -1  -9   0  219.04   12.78
  -1  -9   0  206.89   11.78
  -1  -9   0  208.55   12.54
  -1   9   0  212.29   12.46
   1   9   0  194.17   11.70
   1  -9   0  199.09   11.68
   1   9   0  216.84   11.73
   1   9   0  210.69   12.75
  -1   9   0  218.16   12.40
  -1  -9   0  181.99   12.43
  -1   9   0  201.59   11.90
  -1   9   0  205.50   11.72
   3   9   0   91.81    6.22
  -3  -9   0  111.55    7.34
   3   9   0  120.43    9.72
   3  -9   0  100.09    6.49
  -3  -9   0   74.48    9.11
   3   9   0  101.71    6.05
   3   9   0   97.79    6.02
   3  -9   0   82.81    7.97
   3   9   0  100.97    8.69
  -3  -9   0  114.05    6.79
  -3   9   0  101.35    6.26
  -3   9   0   95.25    6.22
   3   9   0  104.11    6.02
  -3  -9   0   95.32    9.93
  -3   9   0  108.05    6.44
  -3   9   0   88.44    8.51
   3  -9   0   98.26    6.24
  -3   9   0  100.19    6.08
  -3   9   0  111.60    6.75
  -3  -9   0   95.03    6.56
  -3  -9   0  113.91    6.96
  -3  -9   0   83.99    8.94
   3   9   0  100.65    6.22
  -3   9   0  115.62    9.05
   3  -9   0  102.96    9.33
   3  -9   0   83.03    8.28
  -3   9   0  101.86    8.53
   3   9   0   99.29    9.28
   3  -9   0   97.47    6.29
   5   9   0   38.25    3.05
  -5   9   0   37.97    2.95
   5   9   0   24.58    9.10
  -5  -9   0   58.28   10.96
  -5  -9   0   41.79    3.74
  -5  -9   0   42.12    3.97
   5  -9   0   41.28    3.49
   5   9   0   41.12    3.00
   5   9   0   22.65    8.13
  -5  -9   0   35.20    4.25
   5   9   0   25.35    7.59
  -5   9   0   38.43    3.67
   5  -9   0   40.39    3.21
  -5   9   0   38.31    2.91
  -5  -9   0   23.60    9.99
  -5  -9   0   15.37    9.08
  -5   9   0   41.15    3.27
  -5   9   0   41.67    3.71
   5   9   0   47.11    3.39
  -5  -9   0   38.95    3.47
   5   9   0   39.12    3.28
   5  -9   0   36.65    3.08
   5  -9   0   39.54    3.17
   7   9   0   14.77    2.04
   7   9   0   16.80    2.48
   7  -9   0   15.55    2.57
  -7  -9   0   14.02    3.62
  -7  -9   0   13.73    2.52
  -7  -9   0   12.61    2.74
   7  -9   0   19.40    2.69
   7   9   0   16.05    2.54
   7   9   0   16.65    2.35
   7  -9   0   15.67    2.37
   7  -9   0   15.26    2.03
  -7   9   0   14.15    2.84
   0  10   0  339.85   18.73
   0  10   0  319.87   18.32
   0  10   0  336.73   18.83
   0 -10   0  340.58   18.91
   0  10   0  316.65   18.32
   0  10   0  315.92   18.38
   0 -10   0  286.10   18.64
   0 -10   0  339.95   18.75
   0  10   0  329.58   18.30
   0  10   0  338.37   18.88
   0 -10   0  315.16   18.22
   0 -10   0  322.63   18.29
   0 -10   0  338.46   18.85
   0  10   0  326.24   18.28
   2 -10   0  239.78   14.52
   2  10   0  224.40   12.92
   2 -10   0  230.63   13.28
   2 -10   0  229.21   14.28
   2  10   0  230.90   12.99
   2  10   0  222.87   13.05
  -2 -10   0  234.67   13.93
  -2 -10   0  217.14   15.02
   2  10   0  200.78   14.82
  -2  10   0  218.16   14.08
  -2 -10   0  218.01   13.46
  -2 -10   0  238.43   13.35
  -2  10   0  226.87   13.12
  -2 -10   0  242.20   14.24
  -2 -10   0  200.92   14.55
   2 -10   0  237.05   13.08
   2 -10   0  237.16   13.10
  -2  10   0  221.71   13.43
  -2  10   0  228.96   13.30
   2  10   0  227.41   13.03
   2  10   0  223.85   12.93
   2  10   0  224.84   12.92
  -2  10   0  231.31   14.38
   2 -10   0  233.77   14.53
  -2  10   0  232.16   13.01
  -2  10   0  231.03   13.33
  -4  10   0  101.86   11.03
   4 -10   0   93.81    6.59
   4 -10   0  102.83    6.36
  -4  10   0   81.17   10.11
   4  10   0   97.94    6.07
  -4  10   0  107.09    6.86
  -4 -10   0  107.15    7.57
   4  10   0  104.31   12.02
   4  10   0   93.76    6.11
   4 -10   0   80.67    9.39
   4 -10   0   99.23   11.84
   4  10   0   98.78    6.38
   4  10   0   92.08    6.32
  -4 -10   0  106.74    6.85
   4  10   0   88.03   11.06
  -4  10   0  101.74   10.73
   4  10   0   98.08   10.34
  -4  10   0  101.69    6.53
   4  10   0   96.49    6.00
  -4 -10   0  107.10   12.38
  -4 -10   0   93.23    6.81
  -4  10   0   95.96    6.07
  -4 -10   0   84.91   11.23
  -4  10   0  100.62    6.23
   4 -10   0   99.86    6.45
   4 -10   0   93.59    6.34
  -4 -10   0   90.73   11.04
   4 -10   0   87.21    8.98
  -4 -10   0  100.42    6.70
  -4  10   0   99.11    6.29
  -6 -10   0   35.21    4.86
   6  10   0   40.55    3.10
  -6  10   0   33.58    2.86
   6 -10   0   36.85    3.02
   6  10   0   36.13    3.32
   6  10   0   38.23    3.01
   6  10   0   34.56    3.24
  -6 -10   0   32.25    3.50
   6 -10   0   36.24    3.45
  -6 -10   0   36.76    4.48
  -6  10   0   35.74    2.87
  -6 -10   0   36.67    3.76
   6 -10   0   33.50    3.14
  -6  10   0   33.71    3.43
   6 -10   0   37.46    3.15
  -6  10   0   33.04    3.81
   8 -10   0   17.08    2.81
  -8 -10   0   12.86    2.69
  -8 -10   0   10.77    2.91
   8 -10   0   12.43    2.00
   8 -10   0   10.90    2.17
   8  10   0   10.20    2.23
   8  10   0   17.26    2.46
  -8  10   0   10.90    2.81
  -8  10   0   14.54    3.21
   8  10   0   14.44    2.55
   8  10   0   13.77    2.18
  -1  11   0  118.44    7.37
   1  11   0  122.79    7.01
  -1  11   0  121.33    7.09
  -1 -11   0  117.86    7.91
  -1 -11   0  120.83    7.12
  -1  11   0  131.44    7.81
  -1 -11   0  126.79    7.83
   1 -11   0  120.99    7.64
   1  11   0  122.67    7.10
   1  11   0  119.02    7.04
   1 -11   0  136.16    7.93
  -1 -11   0  124.13    8.15
   1  11   0  132.28    8.25
   1 -11   0  120.01    7.03
  -1  11   0  122.79    7.82
  -1  11   0  125.05    7.19
  -1  11   0  127.22    7.31
  -1  11   0  134.54    7.69
   1  11   0  116.62    7.00
   1  11   0  122.48    7.07
  -1 -11   0  113.10    7.92
  -1 -11   0  109.37    7.71
  -1  11   0  123.55    7.09
  -1 -11   0  125.01    7.98
   1 -11   0  118.96    7.74
   3  11   0   74.13    4.43
  -3 -11   0   86.42    5.82
   3 -11   0   67.03    4.46
  -3  11   0   67.95    4.28
   3  11   0   67.14    4.24
  -3 -11   0   60.38    7.59
   3 -11   0   54.09    6.56
   3 -11   0   72.48    4.48
   3  11   0   66.53    4.42
   3 -11   0   53.02    6.25
   3  11   0   74.03    7.32
  -3 -11   0   68.02    4.82
   3 -11   0   68.01    4.68
  -3 -11   0   66.27    8.38
   3 -11   0   65.27    7.21
  -3  11   0   70.20    4.85
  -3  11   0   72.33    8.50
   3  11   0   68.58    7.74
  -3  11   0   54.95    4.32
  -3  11   0   67.81    4.51
  -3  11   0   64.76    4.34
  -3 -11   0   74.44    5.23
  -3 -11   0   69.94    4.88
   3  11   0   58.08    7.46
   3  11   0   69.84    4.21
   3  11   0   70.17    4.23
   5 -11   0   34.51    2.89
   5  11   0   29.28    2.52
   5  11   0   31.44    2.64
  -5 -11   0   29.93    4.07
  -5  11   0   32.76    3.31
  -5  11   0   26.03    3.19
  -5  11   0   32.26    2.51
   5 -11   0   31.35    2.73
   5  11   0   29.64    2.75
  -5 -11   0   35.12    3.19
  -5 -11   0   30.98    3.24
   5  11   0   33.13    2.90
  -5  11   0   28.60    2.73
   5 -11   0   28.74    2.72
   5  11   0   30.34    2.40
  -5 -11   0   29.35    3.41
   5 -11   0   31.39    3.06
  -5  11   0   30.60    2.55
  -7 -11   0    8.24    3.90
   7 -11   0   13.97    2.21
  -7 -11   0   13.07    2.78
  -7 -11   0   15.85    2.52
   7  11   0   22.84    3.13
   7  11   0   11.84    2.07
   7  11   0   16.50    2.03
  -7  11   0   14.54    2.69
   7 -11   0   12.39    2.00
  -7  11   0   13.10    2.67
  -7 -11   0   13.93    3.93
  -7  11   0   12.37    2.76
   7 -11   0   14.91    2.07
   7  11   0   13.47    2.11
   7 -11   0   14.74    2.62
   0 -12   0   59.73    3.87
   0 -12   0   54.40    3.73
   0  12   0   58.13    3.33
   0  12   0   60.15    4.02
   0 -12   0   59.20    3.71
   0  12   0   54.69    3.35
   0 -12   0   58.09    3.96
   0  12   0   57.21    3.38
   0 -12   0   49.45    3.93
   0  12   0   54.60    3.89
   0  12   0   51.12    3.74
   0  12   0   57.06    3.43
   0  12   0   56.70    3.60
   0 -12   0   54.50    3.31
   0 -12   0   56.24    3.23
   2  12   0   39.82    2.56
  -2  12   0   35.47    3.94
   2 -12   0   43.95    3.91
  -2 -12   0   38.06    3.02
  -2 -12   0   39.79    4.60
  -2 -12   0   38.85    4.28
  -2 -12   0   35.08    3.88
   2  12   0   38.99    2.46
   2  12   0   45.22    4.70
  -2  12   0   41.12    2.91
  -2 -12   0   45.23    3.87
   2 -12   0   40.64    3.94
  -2  12   0   40.44    2.87
  -2 -12   0   39.46    4.28
   2  12   0   36.79    2.52
   2 -12   0   39.48    2.81
   2  12   0   38.55    2.39
   2  12   0   35.11    4.48
  -2  12   0   36.30    3.73
   2 -12   0   39.96    2.59
   2  12   0   38.34    2.56
  -2  12   0   41.49    2.94
  -2 -12   0   40.32    3.53
   2 -12   0   41.91    4.06
  -2  12   0   40.53    2.60
  -2  12   0   39.82    2.57
  -2  12   0   38.10    3.59
  -2  12   0   39.08    2.63
  -2 -12   0   39.33    2.66
  -2 -12   0   42.54    2.83
   2  12   0   39.87    2.32
   2  12   0   38.51    2.47
   2  12   0   39.58    2.58
   4 -12   0   15.48    4.96
  -4  12   0   16.98    1.65
   4 -12   0   17.42    2.14
  -4  12   0   12.76    5.80
  -4 -12   0   18.47    2.69
   4  12   0    9.57    5.52
  -4 -12   0   17.12    2.90
  -4  12   0   20.22    1.83
   4  12   0   17.23    1.64
  -4  12   0   14.67    1.80
  -4 -12   0   20.33    2.24
   4 -12   0   16.53    1.88
   4 -12   0   17.93    5.91
  -4  12   0   23.49    6.84
  -4 -12   0   -2.94    6.07
   4 -12   0   18.54    2.00
   4  12   0   18.02    1.67
   4  12   0   16.82    1.85
   4  12   0   17.04    1.58
  -4  12   0   18.18    2.13
   4 -12   0   24.44    5.26
   4  12   0   15.71    1.77
  -4  12   0   17.46    1.97
  -4 -12   0   19.39    2.22
  -4 -12   0    5.71    6.06
   4 -12   0   18.68    1.92
  -4  12   0   11.12    5.67
  -6 -12   0    4.50    1.82
   6 -12   0    7.92    1.49
  -6 -12   0    5.46    2.51
   6  12   0    6.16    1.77
  -6  12   0    5.49    2.09
   6 -12   0    6.51    1.76
  -6  12   0    9.23    1.44
  -6 -12   0    3.72    2.47
   6  12   0    7.77    1.45
  -6 -12   0    7.69    1.90
  -6  12   0    4.23    1.23
  -6  12   0    2.85    1.67
   6  12   0    6.67    1.51
   6 -12   0    7.06    1.68
   6  12   0    3.70    1.32
   6 -12   0    7.22    1.63
   8 -12   0    0.18    1.38
  -8  12   0    1.22    2.55
   8 -12   0    2.41    1.61
   8  12   0   -0.23    1.54
   8 -12   0    3.53    1.90
   8  12   0    0.24    1.89
   8  12   0    0.68    1.56
   8  12   0    0.70    2.04
  -8 -12   0   -0.91    2.39
  -8 -12   0    3.28    2.29
  -8  12   0    6.19    2.45
   1 -13   0  116.35    7.77
  -1 -13   0  127.49    7.80
  -1 -13   0  120.50    7.75
  -1 -13   0  124.52    7.95
  -1 -13   0  118.80    6.98
   1  13   0  118.53    6.88
   1 -13   0  127.28    7.76
  -1  13   0  115.75    7.64
   1  13   0  123.37    8.18
  -1 -13   0  122.45    8.17
  -1 -13   0  122.26    6.95
  -1  13   0  123.65    6.96
  -1  13   0  121.72    7.32
  -1  13   0  123.48    7.77
   1  13   0  118.67    6.97
  -1 -13   0  100.18    7.80
   1  13   0  121.22    6.88
  -1 -13   0  113.97    6.98
   1  13   0  118.50    6.91
   1 -13   0  111.21    6.88
  -1  13   0  114.31    7.05
  -1  13   0  117.65    7.18
  -1  13   0  118.88    7.54
  -1 -13   0  130.51    8.02
   1 -13   0  126.89    7.62
  -1  13   0  122.39    6.97
  -3 -13   0   71.30    5.54
   3 -13   0   59.91    6.36
  -3  13   0   67.33    4.46
  -3  13   0   58.68    4.21
   3  13   0   76.15    8.32
   3 -13   0   59.65    6.73
   3  13   0   67.51    4.08
   3  13   0   69.02    4.31
   3  13   0   65.44    4.23
  -3  13   0   66.35    4.36
  -3  13   0   67.12    6.55
   3 -13   0   65.28    4.56
   3 -13   0   50.94    6.51
  -3 -13   0   61.80    8.28
   3 -13   0   63.64    4.29
  -3 -13   0   63.53    4.68
  -3  13   0   61.82    6.59
  -3 -13   0   64.57    5.10
   3  13   0   60.85    4.10
   3  13   0   63.77    4.03
  -3  13   0   70.68    4.78
  -3 -13   0   60.83    7.84
   3  13   0   67.03    8.31
   3 -13   0   70.94    4.36
  -3  13   0   64.99    4.15
  -3 -13   0   65.27    4.75
   5 -13   0   23.41    2.85
   5 -13   0   28.46    2.68
   5 -13   0   27.40    2.71
   5  13   0   27.12    2.31
  -5  13   0   31.50    3.24
  -5 -13   0   26.23    2.98
  -5 -13   0   39.17    3.46
   5  13   0   27.18    2.42
  -5  13   0   22.48    2.59
   5  13   0   28.34    2.69
   5 -13   0   27.59    2.66
   5  13   0   26.71    2.51
  -5  13   0   26.73    2.41
  -5  13   0   29.18    2.45
  -5 -13   0   28.26    4.18
   5  13   0   30.09    2.84
  -5 -13   0   30.82    3.46
  -7  13   0    6.91    2.26
   7 -13   0    7.57    1.70
  -7  13   0   18.97    3.05
   7  13   0    9.41    1.85
   7  13   0   10.55    2.35
  -7 -13   0   10.01    3.46
   7 -13   0    9.75    1.98
  -7 -13   0   12.82    2.44
   7  13   0    7.03    1.83
   7 -13   0   12.90    2.42
   7 -13   0   10.40    2.00
  -7  13   0   10.22    1.84
   7  13   0    8.61    1.84
  -7 -13   0    9.13    2.44
   7  13   0    8.47    1.87
  -7 -13   0    7.98    3.88
   0  14   0    2.43    0.88
   0  14   0    3.69    1.15
   0  14   0    3.82    0.55
   0 -14   0    3.48    0.45
   0  14   0    3.03    0.41
   0  14   0    2.59    0.49
   0 -14   0    2.41    0.86
   0 -14   0    2.83    0.95
   0 -14   0    4.33    0.91
   0  14   0    2.73    0.41
   0  14   0    4.00    0.76
   0 -14   0    3.27    0.49
   0 -14   0    2.77    0.75
   0 -14   0    4.08    1.15
   0 -14   0    3.48    0.32
   0  14   0    4.49    0.98
  -2 -14   0    0.45    1.05
   2  14   0    1.92    0.43
   2 -14   0    2.56    0.50
  -2 -14   0    1.81    1.70
   2  14   0    0.74    2.06
  -2  14   0    3.08    1.75
   2  14   0    3.72    2.07
   2 -14   0    2.65    0.70
   2 -14   0   -0.03    1.39
   2 -14   0    0.69    1.29
   2 -14   0    3.56    1.57
  -2 -14   0    0.65    0.85
  -2 -14   0    2.67    1.20
  -2 -14   0    5.17    2.27
  -2 -14   0    2.54    0.60
  -2  14   0    1.84    0.69
  -2  14   0    1.73    0.75
   2  14   0    2.20    0.46
  -2 -14   0    2.93    2.33
   2  14   0    2.35    0.40
  -2  14   0    2.70    1.38
  -2  14   0    2.69    0.49
  -2  14   0    2.72    0.57
  -2  14   0    2.79    1.39
  -2 -14   0    2.88    0.57
  -2  14   0    2.67    0.56
   2  14   0    1.81    0.39
   2  14   0    2.48    0.47
  -2 -14   0    1.14    1.70
   2  14   0    2.08    0.44
   4 -14   0    0.24    0.71
   4  14   0    0.32    0.59
   4  14   0    0.91    0.57
   4  14   0    0.85    0.69
  -4  14   0    1.00    0.87
  -4 -14   0    1.39    1.54
  -4 -14   0    0.90    1.01
  -4  14   0   -0.29    0.94
   4  14   0   -2.44    7.40
   4  14   0    4.65    6.07
   4 -14   0   -0.92    0.75
  -4 -14   0   -4.37    5.53
  -4 -14   0    0.36    0.97
  -4  14   0    0.85    0.86
  -4  14   0    0.41    0.63
  -4  14   0    3.19    8.71
  -4 -14   0    2.64    1.68
  -4 -14   0   -2.96    6.25
   4  14   0    1.22    0.92
  -4  14   0    1.36    0.64
  -4 -14   0   -7.70    6.50
   4 -14   0    6.95    4.20
   4  14   0    0.67    0.59
   4 -14   0   -0.53    4.25
   4 -14   0    1.73    1.04
  -4 -14   0   -4.16    5.38
   4 -14   0    2.54    5.64
   6  14   0    1.38    1.47
  -6 -14   0   -0.24    1.39
  -6  14   0   -1.71    1.71
  -6 -14   0    0.91    2.47
  -6 -14   0    3.12    2.42
   6  14   0    0.16    1.07
   6  14   0    0.15    1.10
   6 -14   0   -0.77    1.25
   6 -14   0    0.65    0.88
  -6  14   0   -0.14    0.94
  -6  14   0   -0.03    1.63
   6 -14   0    0.00    1.20
   6  14   0    0.23    1.07
  -6  14   0   -0.64    0.89
   6 -14   0   -0.84    0.99
  -6 -14   0    2.34    1.68
   8 -14   0   -1.44    1.28
   8  14   0    0.04    1.69
  -8 -14   0    1.49    2.58
  -8 -14   0   -2.62    2.03
  -8  14   0    1.79    2.36
   8  14   0    1.62    1.67
   8  14   0    4.37    2.28
   8 -14   0    1.19    1.75
   8 -14   0    2.31    1.54
  -8  14   0    1.36    2.58
  -1 -15   0   15.16    1.21
   1  15   0   18.05    2.56
  -1  15   0   16.56    1.55
  -1  15   0   17.17    1.46
   1  15   0   15.53    1.13
  -1 -15   0   13.68    2.20
   1 -15   0   17.35    2.08
   1  15   0   18.11    2.33
   1  15   0   13.85    1.10
  -1  15   0   14.45    1.19
   1 -15   0   15.37    1.12
  -1  15   0   18.18    2.07
   1 -15   0   17.79    2.30
   1 -15   0   17.13    1.99
  -1 -15   0   14.74    2.16
  -1 -15   0   19.55    2.70
  -1  15   0   16.00    1.20
  -1  15   0   15.91    1.91
  -1 -15   0   17.24    1.21
  -1  15   0   17.25    1.35
   1  15   0   14.33    1.22
  -1  15   0   16.88    2.09
  -1 -15   0   17.94    2.49
  -1 -15   0   11.21    1.86
  -1 -15   0   16.43    2.20
   1  15   0   15.96    1.17
  -1 -15   0   16.15    1.22
   3  15   0    9.73    1.16
   3  15   0    9.86    1.00
  -3 -15   0   11.09    2.21
  -3  15   0   11.36    1.55
   3  15   0    9.13    0.95
  -3  15   0    9.90    2.99
  -3 -15   0    8.50    3.56
   3 -15   0    7.92    3.18
   3  15   0    9.85    1.09
  -3  15   0    8.39    1.53
  -3 -15   0    9.39    1.97
   3  15   0    0.19    3.62
  -3  15   0   10.84    1.26
   3 -15   0   11.03    1.43
   3  15   0    8.18    0.97
  -3 -15   0    9.51    1.56
   3  15   0   10.36    1.30
   3 -15   0   10.12    3.61
   3 -15   0    8.85    3.31
   3 -15   0   10.07    1.34
  -3  15   0    9.48    2.99
  -3  15   0    9.42    1.16
   3  15   0    5.93    3.94
   3  15   0    8.65    1.01
   3  15   0    8.80    0.80
  -3 -15   0    5.96    4.34
  -3 -15   0   11.87    4.51
   3 -15   0    8.51    1.47
  -3 -15   0    8.56    3.82
  -3  15   0    5.50    3.45
  -3  15   0   10.77    1.42
  -3  15   0   10.42    1.34
  -3 -15   0    8.12    1.46
  -5  15   0    5.79    1.65
   5 -15   0    3.39    1.11
   5  15   0    4.68    1.05
   5 -15   0    3.86    1.61
   5  15   0    3.61    1.08
  -5 -15   0    1.11    1.96
   5  15   0    5.34    1.52
  -5  15   0    4.99    1.09
   5  15   0    2.74    1.05
   5 -15   0    5.09    1.42
  -5 -15   0    5.57    1.60
  -5 -15   0    3.65    2.08
  -5  15   0    2.41    1.39
  -5 -15   0    3.23    1.51
  -5  15   0    7.32    1.37
   5  15   0    6.51    1.34
  -5  15   0    4.66    1.52
   5  15   0    4.54    1.18
   5 -15   0    6.16    1.37
   5  15   0    4.36    1.07
  -7  15   0    2.72    2.26
   7  15   0    3.00    1.88
   7 -15   0    2.48    1.37
  -7 -15   0    1.01    2.11
  -7  15   0    3.35    1.42
   7  15   0    2.77    1.52
  -7 -15   0   -0.78    3.55
   7  15   0    2.20    1.47
  -7  15   0    1.53    1.97
   7 -15   0    2.19    1.63
   7 -15   0    0.61    1.44
  -7 -15   0    4.95    1.80
  -7 -15   0    4.08    3.23
   7  15   0    3.32    1.51
   7 -15   0    1.84    1.16
   7  15   0   -0.10    1.59
   0  16   0    2.80    0.73
   0  16   0    4.45    1.15
   0 -16   0    3.82    1.15
   0 -16   0    3.96    1.03
   0  16   0    4.12    1.12
   0 -16   0    2.56    1.07
   0  16   0    4.02    0.54
   0 -16   0    3.27    0.84
   0 -16   0    3.52    0.36
   0  16   0    3.45    0.57
   0 -16   0    4.06    0.50
   0 -16   0    3.84    1.13
   0 -16   0    4.26    0.58
   0  16   0    2.82    0.55
   0  16   0    5.80    1.24
   0  16   0    3.50    0.49
  -2  16   0    3.68    0.63
   2  16   0    2.02    0.43
  -2 -16   0    7.23    1.87
   2 -16   0    0.71    1.64
  -2  16   0    3.91    0.86
  -2  16   0    1.90    0.74
   2 -16   0    1.80    1.79
  -2  16   0    0.86    1.90
  -2  16   0    1.58    1.45
  -2  16   0    1.74    1.46
   2  16   0    2.28    0.51
  -2  16   0    2.19    0.54
  -2 -16   0    3.97    0.95
  -2  16   0    3.19    0.60
  -2 -16   0    7.10    2.70
  -2 -16   0    3.70    2.66
   2  16   0    2.51    2.38
  -2 -16   0    3.74    0.72
   2  16   0    3.95    2.30
  -2 -16   0    2.81    0.62
   2  16   0    2.32    0.42
   2 -16   0    3.06    0.55
   2 -16   0    3.29    0.82
   2  16   0    2.55    0.59
  -2 -16   0    2.85    1.96
   2 -16   0    3.67    1.81
  -2 -16   0    5.08    1.98
   2  16   0    3.66    0.55
  -2 -16   0    2.22    1.30
   2  16   0    2.83    0.57
  -4 -16   0    2.49    6.23
   4  16   0    3.01    0.78
  -4  16   0   -3.54    5.84
  -4 -16   0    1.14    1.58
   4  16   0    2.06    0.72
  -4  16   0    2.38    1.09
  -4 -16   0    3.31    1.77
   4 -16   0    3.56    4.67
   4 -16   0    3.10    0.98
   4  16   0    2.66    0.75
  -4  16   0    0.87    0.64
  -4  16   0    3.88    5.24
   4  16   0    5.29    7.40
  -4 -16   0    1.36    1.16
   4 -16   0    1.15    6.01
   4  16   0    1.60    0.68
  -4  16   0    0.47    5.20
  -4  16   0    3.75    0.88
   4  16   0    2.84    1.12
  -4 -16   0    2.18    1.23
   4 -16   0    2.33    0.86
   4  16   0    2.98    0.73
  -4  16   0    1.23    1.24
   4 -16   0   10.22    4.83
  -4  16   0    2.68    1.22
   4  16   0    1.68    0.74
   4 -16   0    2.17    1.16
  -4 -16   0    7.90    6.25
   6  16   0    1.98    1.42
  -6 -16   0    3.34    2.68
   6 -16   0   -0.54    1.50
   6  16   0    0.92    1.26
  -6  16   0    0.78    1.99
  -6 -16   0    3.48    2.79
  -6 -16   0   -1.11    1.41
  -6  16   0    4.25    1.32
   6  16   0    0.13    1.19
  -6 -16   0    2.47    1.82
   6 -16   0    1.75    0.93
   6  16   0    2.95    1.83
   6 -16   0    2.36    1.19
  -6  16   0    3.08    1.12
   6 -16   0    1.28    1.37
  -6  16   0    3.54    1.82
   6  16   0    0.54    1.21
   8  16   0   -1.46    2.28
   8 -16   0    0.28    1.60
   8  16   0    1.34    1.69
  -8 -16   0   -0.18    2.08
  -8  16   0   -2.18    2.78
   8 -16   0   -0.93    1.81
   8 -16   0    1.31    1.41
  -8 -16   0   -3.35    2.56
   8  16   0   -0.40    1.65
  -1 -17   0    1.85    0.45
  -1 -17   0    1.39    0.39
   1  17   0    1.94    0.35
  -1 -17   0    1.39    0.39
  -1  17   0    2.27    1.19
  -1  17   0    1.18    0.62
   1  17   0    1.37    0.58
   1  17   0    1.17    0.43
  -1 -17   0    2.07    1.29
  -1 -17   0    2.86    1.80
   1 -17   0    1.52    1.13
   1 -17   0    1.89    0.70
  -1  17   0    1.64    0.39
  -1  17   0    1.64    0.60
   1  17   0    1.99    0.38
   1  17   0    1.21    0.35
  -1  17   0    1.50    0.45
  -1 -17   0    0.82    1.12
   1  17   0    0.91    1.62
  -1 -17   0    0.01    1.48
   1 -17   0    0.21    1.04
   1  17   0    1.40    1.42
  -1  17   0    1.61    0.41
   1  17   0    1.54    0.34
  -1  17   0    2.01    1.22
  -1  17   0    1.14    1.11
  -1 -17   0    1.82    1.23
  -1 -17   0    0.44    1.09
   1 -17   0    1.70    1.19
   1 -17   0    1.59    0.36
  -3 -17   0    0.58    3.15
  -3  17   0    0.32    0.41
   3  17   0   -1.72    4.04
  -3  17   0   -0.24    0.67
   3  17   0    6.20    4.04
  -3  17   0    0.69    0.62
   3  17   0    0.64    0.61
  -3  17   0    1.66    0.92
  -3 -17   0    0.53    1.29
   3 -17   0   -0.05    0.48
   3  17   0    0.83    0.44
   3  17   0    0.77    0.42
  -3  17   0    1.80    2.52
  -3 -17   0   -0.41    0.68
  -3  17   0   -0.03    2.51
  -3 -17   0    0.69    1.33
   3 -17   0   -2.48    2.62
  -3 -17   0   -4.30    4.54
  -3  17   0   -0.44    0.50
   3  17   0    0.74    0.26
   3 -17   0    1.02    2.80
   3  17   0    0.58    0.40
  -3 -17   0    0.56    3.25
  -3 -17   0    7.18    4.73
   3 -17   0    0.75    0.68
   3  17   0    0.06    0.36
  -3  17   0    0.28    3.64
   3 -17   0   -0.44    2.94
   3  17   0   -0.07    0.42
  -3  17   0   -0.25    0.66
   3 -17   0    0.26    0.54
  -3 -17   0   -0.07    0.99
   3  17   0    0.17    0.54
   5  17   0   -1.62    0.92
  -5  17   0   -0.82    0.82
  -5 -17   0   -1.05    1.83
   5 -17   0    1.16    0.99
   5  17   0   -2.09    1.37
  -5  17   0   -1.47    1.42
   5 -17   0   -0.23    1.04
  -5  17   0   -0.06    1.29
  -5 -17   0   -2.75    1.82
  -5 -17   0   -0.92    1.26
   5  17   0   -0.04    0.95
   5  17   0   -1.09    0.94
  -5 -17   0    0.30    1.42
   5  17   0   -1.72    0.80
  -5  17   0    0.36    0.81
   5 -17   0    0.49    1.25
   5 -17   0    0.83    0.93
   5  17   0    0.64    1.03
   7  17   0   -2.51    1.69
   7  17   0    0.29    1.41
   7 -17   0    0.77    1.12
  -7  17   0    1.83    1.89
  -7 -17   0   -1.58    3.32
  -7 -17   0   -3.27    3.61
   7  17   0   -0.22    1.41
  -7  17   0    1.14    2.25
   7 -17   0    0.45    1.57
   7  17   0    2.59    1.53
   7  17   0    0.89    2.03
  -7 -17   0   -0.63    2.04
  -7 -17   0   -2.00    1.66
  -7  17   0   -1.52    1.28
   7 -17   0    2.04    1.63
   7 -17   0    0.11    1.28
   0  18   0    1.19    0.35
   0  18   0    1.45    1.31
   0  18   0    1.42    0.32
   0  18   0    0.82    0.35
   0 -18   0    1.50    0.81
   0 -18   0    2.39    1.06
   0 -18   0    1.20    1.06
   0 -18   0    2.56    0.84
   0 -18   0    1.20    0.38
   0  18   0    0.57    1.08
   0 -18   0    1.55    1.15
   0  18   0    1.47    1.09
   0 -18   0    1.20    0.23
   0  18   0    0.96    0.65
   0 -18   0    0.93    0.32
   2 -18   0   -0.48    1.78
  -2  18   0    0.69    0.44
  -2 -18   0    1.17    1.30
  -2 -18   0   -0.18    1.83
  -2 -18   0   -1.49    1.75
  -2 -18   0    0.64    0.48
  -2 -18   0    0.14    0.84
  -2 -18   0    2.56    3.21
  -2  18   0   -0.01    1.62
   2 -18   0    2.36    1.82
  -2 -18   0    0.72    0.39
   2  18   0    2.44    2.79
   2 -18   0    0.85    0.39
  -2 -18   0   -0.27    1.52
  -2  18   0    0.54    0.35
   2  18   0    0.50    0.40
   2  18   0    1.29    0.48
   2  18   0    0.94    0.44
   2  18   0    0.38    0.30
  -2 -18   0    0.19    2.76
   2  18   0    0.37    0.30
  -2  18   0   -0.11    0.60
  -2  18   0    2.06    1.75
  -2  18   0    2.83    2.18
   2 -18   0    5.25    1.93
  -2  18   0    1.11    0.47
   2  18   0    0.62    0.30
  -2  18   0    0.68    0.58
  -4 -18   0    0.99    1.72
  -4  18   0    0.14    0.72
   4  18   0   -0.24    1.03
  -4  18   0   -1.14    1.05
  -4 -18   0    0.58    1.67
  -4  18   0   -0.13    0.64
   4 -18   0   -1.38    0.85
  -4  18   0    0.70    1.08
  -4 -18   0    2.20    1.13
   4  18   0    0.38    0.58
   4  18   0    0.77    0.67
   4  18   0    0.54    0.66
  -4  18   0    0.09    1.17
   4  18   0   12.32   10.19
   4 -18   0    0.07    0.72
   4  18   0   -0.06    0.55
   4  18   0   -0.50    0.64
  -4 -18   0   -0.83    1.20
   4 -18   0    0.57    0.88
   4  18   0   -0.89    0.73
   6  18   0   -2.60    1.13
  -6  18   0    0.69    1.06
  -6  18   0    1.02    1.07
  -6  18   0   -2.73    1.69
   6  18   0    0.65    1.33
   6 -18   0   -0.80    0.88
   6  18   0   -0.05    1.34
   6 -18   0   -0.02    1.18
  -6 -18   0    1.71    2.77
  -6 -18   0   -0.98    2.74
  -6 -18   0   -2.33    1.66
   6 -18   0   -2.79    1.30
  -6 -18   0    1.19    1.51
   6  18   0   -1.36    1.80
  -6  18   0   -0.01    1.81
   6  18   0    0.79    1.20
   6 -18   0   -0.52    1.45
   1  19   0   46.98    3.28
  -1 -19   0   47.40    3.20
  -1  19   0   51.38    3.38
   1  19   0   49.23    3.13
  -1 -19   0   52.61    4.33
   1  19   0   50.62    3.13
   1 -19   0   49.82    4.09
   1  19   0   50.34    3.21
  -1  19   0   53.48    4.37
  -1  19   0   51.72    4.14
   1 -19   0   50.92    4.27
  -1 -19   0   44.71    4.42
  -1 -19   0   47.02    4.31
   1  19   0   54.27    5.03
   1  19   0   50.06    3.30
  -1  19   0   50.12    3.70
   1  19   0   51.62    3.17
   1 -19   0   45.62    4.33
  -1  19   0   51.31    3.22
   1 -19   0   45.61    3.37
  -1 -19   0   48.51    3.27
  -1  19   0   54.35    3.28
  -1  19   0   58.92    4.40
  -1 -19   0   50.05    4.29
   1 -19   0   53.31    3.16
  -1 -19   0   50.40    3.22
  -1 -19   0   51.18    4.70
   1  19   0   53.21    4.76
  -1 -19   0   56.72    5.21
   3 -19   0   34.54    5.29
  -3 -19   0   31.50    6.84
  -3  19   0   34.01    2.97
  -3 -19   0   38.13    2.94
  -3  19   0   32.89    2.47
   3  19   0   36.92    2.50
  -3 -19   0   43.90    4.42
   3 -19   0   37.76    2.70
   3  19   0   32.02    2.34
   3 -19   0   35.94    2.96
  -3  19   0   23.16    4.22
   3  19   0   37.13    2.62
   3 -19   0   30.74    5.03
   3 -19   0   36.57    2.60
  -3  19   0   31.84    4.73
  -3 -19   0   24.33    5.14
  -3 -19   0   42.89    7.45
   3 -19   0   24.11    4.58
  -3  19   0   33.50    2.52
   3  19   0   32.21    2.51
  -3  19   0   34.83    2.68
  -3 -19   0   32.64    5.64
   3  19   0   38.57    6.91
   3  19   0   28.53    6.80
  -3  19   0   36.98    2.91
  -3 -19   0   28.88    3.00
   3  19   0   32.21    2.53
  -3 -19   0   33.49    3.85
   3  19   0   33.52    2.39
  -3  19   0   32.86    6.07
  -5  19   0   16.48    1.95
   5  19   0   18.49    2.09
   5  19   0   21.42    2.14
   5  19   0   15.84    2.36
  -5 -19   0   18.29    2.64
   5 -19   0   13.85    2.53
  -5 -19   0   17.46    3.10
   5 -19   0   18.43    2.51
   5 -19   0   15.14    2.37
  -5  19   0   21.39    2.89
   5 -19   0   16.93    2.38
  -5  19   0   16.18    1.93
  -5  19   0   19.88    2.65
   5  19   0   15.31    1.90
   5  19   0   18.09    2.26
  -5 -19   0   11.61    2.30
  -5 -19   0   18.11    3.67
   5  19   0   19.79    2.36
   7  19   0    6.19    2.41
   7 -19   0    8.96    2.44
   7  19   0    8.26    1.92
  -7 -19   0    8.35    2.33
   7  19   0    9.69    2.17
   7 -19   0    7.52    1.76
  -7 -19   0    7.17    2.59
   7  19   0    5.45    1.82
  -7  19   0    8.22    2.30
   7  19   0    6.02    3.35
  -7  19   0    9.94    2.67
  -7  19   0    8.25    1.71
   7 -19   0    8.84    1.97
  -7 -19   0    5.54    3.92
   0 -20   0   -0.28    0.20
   0 -20   0    0.45    1.31
   0 -20   0    0.37    0.26
   0  20   0   -0.35    0.67
   0  20   0    0.48    0.45
   0 -20   0    0.12    0.30
   0  20   0   -0.11    1.38
   0  20   0    0.46    1.21
   0 -20   0    0.05    0.70
   0  20   0    0.77    1.22
   0 -20   0   -1.21    0.88
   0  20   0   -0.04    0.37
   0 -20   0   -1.12    1.23
   0  20   0   -0.38    0.28
   0 -20   0    0.75    1.45
   0  20   0    0.00    0.28
  -2 -20   0   -0.68    1.50
   2  20   0    0.74    2.77
   2  20   0   -0.01    0.28
  -2 -20   0    0.22    0.44
  -2 -20   0    5.08    3.39
  -2 -20   0   -1.50    1.86
  -2 -20   0   -1.22    1.27
  -2  20   0    0.23    0.53
   2 -20   0    3.22    2.14
  -2  20   0   -0.34    0.65
  -2  20   0    0.00    0.36
  -2  20   0   -0.49    0.40
   2 -20   0    0.19    2.07
  -2  20   0   -1.10    1.76
  -2  20   0    0.35    0.38
  -2 -20   0   -0.22    0.40
  -2 -20   0   -0.23    0.79
   2  20   0    0.28    3.05
  -2  20   0    0.10    2.42
  -2 -20   0    0.67    3.50
   2  20   0    0.60    0.41
   2 -20   0   -2.97    2.12
   2  20   0   -0.02    0.34
  -2 -20   0    0.99    2.03
   2 -20   0   -0.22    0.31
   2  20   0    0.51    0.46
  -2  20   0    3.28    1.89
   2  20   0    0.32    0.32
  -4  20   0   -0.61    0.64
   4  20   0    1.30    0.95
  -4 -20   0    0.62    1.49
  -4 -20   0    0.19    1.04
   4 -20   0    1.07    0.93
   4  20   0    0.04    0.71
   4 -20   0    0.12    0.74
   4  20   0   -0.56    0.56
  -4  20   0    0.81    0.73
   4  20   0    0.45    0.70
  -4 -20   0   -1.42    1.62
   4 -20   0    0.63    1.01
   4  20   0    0.93    1.09
  -4  20   0    0.03    1.25
  -4 -20   0   -1.31    1.61
  -4  20   0   -0.53    1.08
   6 -20   0   -0.57    1.01
   6  20   0    1.21    1.35
   6 -20   0    1.27    1.31
   6  20   0   -0.76    1.30
   6  20   0    0.15    2.00
   6 -20   0   -0.20    1.49
  -6 -20   0   -1.50    2.77
   6  20   0   -0.81    1.42
  -6  20   0    2.47    2.01
   6 -20   0    1.49    1.66
  -6 -20   0   -1.44    2.75
   6  20   0   -0.19    1.35
  -6  20   0   -3.00    1.95
  -6  20   0   -1.63    1.09
  -6 -20   0    0.13    1.62
  -6 -20   0   -0.31    1.96
  -6  20   0   -0.09    1.07
   1  21   0   14.20    1.36
   1  21   0   14.60    1.15
   1 -21   0   14.61    1.16
  -1 -21   0   14.73    1.22
  -1  21   0   13.52    1.24
  -1 -21   0   14.52    1.28
  -1  21   0   13.46    1.22
  -1 -21   0   14.80    2.53
  -1 -21   0   11.51    2.87
   1 -21   0   12.58    2.54
   1  21   0   12.80    1.20
  -1 -21   0   13.41    2.42
   1  21   0   14.09    1.40
  -1 -21   0   18.50    3.34
  -1  21   0   17.28    1.83
  -1  21   0   14.17    1.39
  -1  21   0   13.65    1.47
   1  21   0   17.10    2.86
   1 -21   0   15.72    2.51
  -1 -21   0   10.68    2.37
  -1 -21   0   14.11    1.23
  -1  21   0   14.19    2.29
  -1 -21   0   14.58    2.45
   1 -21   0   13.33    2.36
   1  21   0   13.81    1.14
   1 -21   0   15.91    1.64
   1  21   0   17.44    3.12
  -1  21   0   14.54    2.55
   1  21   0   14.20    1.18
  -1  21   0   15.53    2.34
  -3 -21   0    9.32    1.53
   3  21   0   11.04    5.78
   3 -21   0   11.26    1.74
  -3 -21   0    9.50    2.54
   3  21   0    9.82    1.07
   3 -21   0   10.30    1.36
  -3 -21   0    8.08    1.71
  -3  21   0   10.00    1.53
   3  21   0    8.99    1.25
  -3  21   0   13.51    4.91
  -3 -21   0   10.10    4.36
  -3 -21   0   13.04    2.69
   3 -21   0    7.04    4.37
  -3  21   0    9.01    1.27
  -3 -21   0   12.95    4.27
   3 -21   0    5.36    4.06
   3 -21   0    8.73    1.32
   3  21   0   11.15    1.12
  -3  21   0    8.74    1.49
   3  21   0   10.38    1.14
  -3  21   0    9.63    1.25
   3 -21   0    9.02    4.31
   3  21   0    9.66    1.09
  -3  21   0   10.11    1.26
  -3  21   0    5.95    3.27
  -3  21   0   10.66    3.42
  -5 -21   0    4.88    1.94
  -5 -21   0    9.19    3.03
  -5 -21   0    2.35    2.45
   5  21   0    5.05    1.40
  -5  21   0    6.48    1.97
   5  21   0    8.20    1.58
  -5  21   0    4.09    1.23
   5 -21   0    4.74    1.53
   5 -21   0    5.70    1.99
  -5 -21   0    7.13    2.16
   5  21   0    5.39    1.26
  -5  21   0    7.44    1.94
   5 -21   0    2.13    1.47
   5 -21   0    5.95    1.55
  -5  21   0    6.89    1.53
   5  21   0    3.38    1.24
   5  21   0    5.88    1.35
   5  21   0   11.92    2.17
  -7 -21   0    0.09    3.74
  -7 -21   0   -0.53    2.47
  -7 -21   0    4.20    2.04
   7 -21   0    0.08    1.99
   7  21   0   -4.17    1.87
   7  21   0    3.90    1.94
   7 -21   0    3.66    1.51
   7  21   0   -5.17    2.13
   7  21   0    3.28    1.70
  -7  21   0    6.22    1.60
   7 -21   0    4.38    1.44
   0  22   0  292.10   17.54
   0 -22   0  292.19   17.40
   0 -22   0  311.13   18.35
   0 -22   0  309.27   19.24
   0 -22   0  317.75   18.14
   0  22   0  310.77   18.63
   0  22   0  321.27   18.97
   0 -22   0  315.40   17.65
   0  22   0  315.00   17.68
   0 -22   0  325.36   18.72
   0  22   0  299.04   17.86
   0 -22   0  318.65   18.92
   0  22   0  291.34   18.15
   0  22   0  314.39   17.76
   0 -22   0  310.64   17.72
   0  22   0  324.11   18.91
   2  22   0  230.95   13.75
  -2 -22   0  224.08   15.46
  -2 -22   0  231.33   16.71
  -2 -22   0  226.90   15.85
  -2  22   0  261.22   14.00
   2  22   0  241.54   13.84
   2 -22   0  256.94   15.82
  -2  22   0  238.23   15.35
   2  22   0  240.18   13.98
  -2 -22   0  206.57   15.54
  -2  22   0  244.43   14.50
   2 -22   0  259.40   15.52
  -2  22   0  242.01   13.93
   2  22   0  215.97   15.95
  -2 -22   0  229.09   13.84
  -2  22   0  249.48   15.16
   2  22   0  240.79   13.76
   2  22   0  231.47   16.80
  -2  22   0  240.43   13.63
  -2 -22   0  237.61   14.02
   2  22   0  241.91   13.75
  -2 -22   0  233.20   15.57
  -2 -22   0  237.63   17.34
   2  22   0  250.11   13.91
  -2  22   0  251.50   15.86
  -2 -22   0  236.72   14.00
   2 -22   0  237.45   13.81
   2 -22   0  245.46   15.85
  -4  22   0  127.70    8.41
   4  22   0  126.85    7.69
  -4  22   0  113.49    8.02
  -4  22   0  125.33    7.91
  -4 -22   0  132.71    9.96
  -4  22   0  127.28    8.16
   4  22   0  124.29    7.84
   4 -22   0  123.32    8.11
  -4 -22   0  125.74    8.63
  -4  22   0  123.87    7.83
   4  22   0  126.06    7.70
   4 -22   0  127.13    8.13
   4 -22   0  120.70    8.42
   4  22   0  129.79    7.87
  -4 -22   0  123.54    9.35
   6 -22   0   47.66    4.34
  -6  22   0   47.39    4.83
  -6  22   0   48.44    4.80
  -6  22   0   40.57    3.90
  -6 -22   0   48.67    4.77
  -6 -22   0   55.87    4.86
   6  22   0   50.99    4.54
   6 -22   0   48.61    4.31
   6  22   0   52.89    4.07
   6  22   0   43.28    4.04
   6  22   0   45.55    4.12
   6 -22   0   51.80    4.14
   6 -22   0   56.02    4.92
  -6  22   0   51.25    4.03
  -6 -22   0   40.12    5.94
  -6 -22   0   50.18    6.08
  -1 -23   0   51.94    3.39
   1 -23   0   51.86    4.89
  -1 -23   0   50.52    4.66
  -1  23   0   47.30    3.89
   1  23   0   56.43    5.78
   1  23   0   51.02    3.28
  -1 -23   0   54.84    3.39
  -1  23   0   50.58    3.42
  -1  23   0   43.19    4.41
  -1 -23   0   54.34    5.54
  -1  23   0   53.77    3.39
  -1 -23   0   52.64    3.48
  -1 -23   0   50.35    4.64
  -1 -23   0   67.00    6.49
  -1 -23   0   51.05    5.16
  -1  23   0   52.85    4.92
   1 -23   0   52.63    3.67
   1  23   0   53.18    3.41
   1 -23   0   58.45    5.36
   1  23   0   51.69    3.51
   1  23   0   53.19    5.35
  -1  23   0   46.80    4.73
   1  23   0   46.91    3.42
  -1 -23   0   49.69    4.90
  -1  23   0   51.11    3.56
   1 -23   0   52.28    4.69
   1  23   0   52.74    3.35
   1 -23   0   51.66    3.28
  -1  23   0   49.82    3.16
  -3  23   0   28.22    2.20
  -3  23   0   28.89    5.02
   3  23   0   27.46    2.18
  -3  23   0   26.96    5.16
   3 -23   0   25.84    5.23
   3  23   0   31.48    2.54
  -3 -23   0   30.47    2.63
   3 -23   0   33.56    2.88
  -3  23   0   36.10    6.84
  -3 -23   0   34.86    4.85
  -3 -23   0   27.29    4.37
   3  23   0   31.92    2.22
  -3  23   0   30.33    2.37
  -3  23   0   30.22    2.69
  -3  23   0   33.55    2.81
  -3 -23   0   16.62    5.40
   3 -23   0   23.37    5.58
   3 -23   0   31.51    5.73
  -3  23   0   28.14    2.44
   3 -23   0   30.73    2.49
   3 -23   0   28.52    2.35
  -3 -23   0   13.49    5.29
   3  23   0   27.03    6.27
   3  23   0   27.86    2.23
   3  23   0   29.95    2.35
  -3 -23   0   30.33    3.06
  -5  23   0   17.31    2.79
   5 -23   0   13.47    2.21
   5  23   0    7.80    1.59
   5 -23   0   12.51    2.24
   5  23   0   12.41    2.06
   5  23   0    8.00    1.55
  -5  23   0   11.57    1.86
  -5 -23   0   12.22    3.12
  -5  23   0   10.84    1.67
   5 -23   0   11.50    2.36
  -5  23   0   10.63    2.19
  -5 -23   0    6.83    3.10
   5  23   0    8.91    1.57
  -5 -23   0   10.89    2.42
   5  23   0    9.14    1.68
   5 -23   0   13.09    2.18
  -5 -23   0   10.78    2.40
  -7 -23   0    2.88    2.03
   7  23   0    5.58    2.00
   7  23   0    0.82    1.67
   7 -23   0    5.08    1.69
  -7 -23   0    3.72    2.84
  -7 -23   0   -4.19    3.76
   7  23   0    4.64    2.18
  -7  23   0    2.84    1.55
   7 -23   0    6.78    2.43
   7 -23   0    6.16    1.53
   0 -24   0    0.98    0.87
   0  24   0    0.30    0.49
   0 -24   0    0.40    0.37
   0  24   0   -2.28    2.05
   0  24   0    0.28    0.39
   0  24   0    0.23    0.59
   0  24   0    1.18    0.91
   0  24   0    0.72    1.86
   0 -24   0   -0.39    2.03
   0  24   0    0.16    0.35
   0 -24   0   -0.45    1.19
   0 -24   0    2.95    1.96
   0  24   0    2.22    1.81
   0 -24   0    1.42    1.85
   0 -24   0    0.78    0.37
   0 -24   0    0.64    0.30
   2 -24   0    0.88    0.46
  -2  24   0   -0.27    0.61
  -2 -24   0   -2.52    1.71
   2  24   0    1.15    0.69
  -2 -24   0   -1.37    2.71
   2 -24   0   -0.27    2.69
  -2  24   0    2.86    2.59
   2  24   0   -0.46    0.44
  -2  24   0   -4.76    2.43
  -2  24   0    2.74    3.25
   2  24   0    2.59    3.34
  -2 -24   0    1.31    2.73
   2  24   0    0.66    0.59
   2 -24   0    2.25    2.92
  -2 -24   0    0.46    0.58
   2  24   0    0.91    0.46
  -2  24   0    0.68    0.94
   2  24   0    0.26    0.51
  -2 -24   0   -0.19    0.53
   2 -24   0   -0.89    2.80
  -2  24   0    1.05    0.52
  -2 -24   0   -0.97    1.86
   2  24   0    0.92    0.43
  -2  24   0   -0.08    0.40
  -4  24   0   -0.48    0.70
   4 -24   0   -0.39    0.98
  -4  24   0    0.69    1.00
  -4 -24   0    0.64    1.33
   4  24   0   -1.20    0.90
  -4 -24   0    0.30    1.97
  -4  24   0    2.52    1.36
   4  24   0    0.65    1.00
   4  24   0    0.45    0.82
   4  24   0    0.07    0.78
  -4  24   0    1.44    1.58
   4  24   0   -3.85    1.13
   4 -24   0   -0.63    0.93
   4  24   0    0.81    0.73
  -4 -24   0    0.01    1.81
   4 -24   0    1.03    1.19
  -4  24   0    0.58    0.82
  -4 -24   0   -0.52    2.17
   4  24   0   -0.61    0.75
  -6 -24   0    3.50    3.25
   6 -24   0    1.62    1.78
  -6  24   0    0.41    1.31
  -6 -24   0   -0.20    1.74
   6 -24   0   -1.15    1.06
  -6 -24   0   -4.10    2.47
   6  24   0   -0.14    1.41
  -6  24   0    0.02    1.13
   6  24   0    1.97    1.77
   6 -24   0    2.69    2.04
   6  24   0    1.78    1.54
   6 -24   0    0.44    1.43
   6  24   0    0.95    1.59
  -6 -24   0   -0.21    2.94
   1 -25   0    8.95    2.86
  -1  25   0   10.30    1.17
   1  25   0   11.91    1.38
  -1  25   0   10.79    2.51
  -1 -25   0   12.05    2.45
  -1  25   0   11.90    1.51
  -1 -25   0   11.15    1.18
   1 -25   0   10.72    2.54
   1  25   0   12.73    1.40
   1 -25   0   16.00    1.93
  -1 -25   0   12.71    1.26
  -1  25   0   11.98    3.08
  -1  25   0   10.58    1.77
   1 -25   0   10.65    2.64
  -1  25   0   13.65    2.69
  -1 -25   0   19.00    3.33
  -1 -25   0   12.16    2.97
   1  25   0   11.65    1.18
  -1 -25   0   15.54    2.61
  -1  25   0   12.05    1.18
  -1 -25   0   13.71    1.23
   1  25   0   11.52    3.10
   1 -25   0   11.81    1.11
   1  25   0   11.44    1.24
  -1  25   0   11.44    1.23
  -3  25   0    7.41    1.20
   3  25   0    7.38    0.97
   3  25   0    7.60    1.27
   3  25   0    7.50    1.17
   3  25   0    8.52    1.14
  -3 -25   0    4.17    1.68
   3 -25   0    9.15    1.76
   3  25   0    7.05    1.06
  -3 -25   0    5.24    2.47
   3  25   0    7.96    1.19
  -3 -25   0   11.00    3.24
   3 -25   0    9.68    1.40
  -3  25   0    8.77    1.56
  -3  25   0    7.45    1.24
   3 -25   0    8.01    1.20
  -3 -25   0   10.10    1.55
  -3  25   0   10.60    1.66
   5  25   0    1.87    1.26
   5  25   0    5.43    1.37
  -5  25   0    3.67    1.25
  -5 -25   0    4.98    1.93
  -5 -25   0    0.53    2.62
   5 -25   0    3.73    1.58
  -5 -25   0    1.54    2.37
   5  25   0    3.99    1.47
  -5 -25   0    3.90    2.70
   5 -25   0    3.81    1.60
   5  25   0    4.81    1.56
  -5  25   0    3.91    1.27
   5 -25   0    4.44    1.52
   5 -25   0    3.28    1.88
   5  25   0    3.87    2.03
   7  25   0    3.28    1.72
   7  25   0    0.33    2.01
  -7 -25   0    5.59    3.92
   7 -25   0    5.06    2.33
   7 -25   0   -0.74    1.28
  -7 -25   0    1.23    2.14
  -7  25   0   -0.87    1.47
   7 -25   0    3.26    1.62
   0 -26   0    1.49    1.00
   0  26   0    2.27    1.05
   0 -26   0    4.66    2.32
   0 -26   0   -0.12    2.49
   0  26   0   -1.51    2.13
   0  26   0   -0.16    2.56
   0 -26   0    2.82    0.60
   0 -26   0    1.05    0.56
   0 -26   0    0.79    0.35
   0  26   0    2.51    0.55
   0  26   0    2.39    0.60
   0  26   0    1.61    2.26
   0  26   0    2.02    0.73
   0 -26   0    5.32    2.48
   0 -26   0    1.99    1.38
  -2 -26   0    0.44    0.57
  -2 -26   0   -0.59    1.98
  -2  26   0    2.55    2.97
   2  26   0   -0.15    0.47
   2  26   0    0.98    0.49
  -2  26   0    2.16    0.89
   2 -26   0    2.85    3.47
  -2  26   0    2.36    2.92
   2 -26   0    0.32    3.36
  -2  26   0    2.35    3.93
   2  26   0    1.07    0.76
   2  26   0    0.56    4.10
  -2 -26   0   -5.98    3.28
   2  26   0    0.80    0.61
   2  26   0   -0.22    0.70
  -2  26   0    1.24    0.61
   2 -26   0    0.65    0.50
  -2 -26   0    2.94    3.27
   2  26   0    1.31    0.51
   2 -26   0    4.56    3.53
  -2  26   0    1.16    0.56
  -2 -26   0    2.12    2.24
  -2 -26   0    0.41    0.64
   4 -26   0   -0.98    0.89
  -4  26   0   -0.71    0.96
  -4 -26   0   -1.28    1.21
  -4 -26   0    2.29    2.65
  -4  26   0    0.85    0.88
   4 -26   0   -0.87    1.08
   4  26   0   -0.05    0.81
   4  26   0   -0.32    0.90
   4  26   0   -1.31    1.35
  -4 -26   0    2.15    2.07
  -4 -26   0    5.63    2.78
   4  26   0   -0.80    1.15
  -4  26   0   -0.23    0.92
   4  26   0   -1.16    0.81
   4  26   0    0.30    1.12
   4 -26   0    1.16    1.24
  -6 -26   0    1.64    2.99
   6  26   0    1.21    1.52
   6  26   0   -1.94    1.67
  -6 -26   0    0.11    2.07
  -6  26   0   -0.61    1.17
   6 -26   0    3.06    2.12
  -6 -26   0    0.47    2.82
  -6  26   0    0.44    1.51
  -6 -26   0   -0.15    3.54
   6 -26   0   -2.77    1.78
   6  26   0    2.35    1.83
   6 -26   0   -0.02    1.55
   6  26   0   -1.47    1.82
   6 -26   0    1.60    1.19
  -1 -27   0    3.54    0.76
  -1 -27   0    5.65    2.05
   1  27   0    3.20    3.28
   1 -27   0    5.35    1.36
   1  27   0    4.13    0.69
  -1  27   0    2.46    1.05
  -1 -27   0    7.55    3.13
   1  27   0    4.14    0.92
  -1 -27   0    3.63    0.81
  -1 -27   0   -1.81    2.87
   1  27   0    3.89    0.81
   1 -27   0    3.74    2.65
   1 -27   0    4.20    0.70
  -1 -27   0    4.32    0.83
  -1  27   0    3.52    3.02
  -1  27   0    3.58    2.58
   1 -27   0    2.12    2.59
  -1  27   0    2.91    0.67
   1 -27   0    4.32    0.86
  -1  27   0    2.42    0.84
  -1 -27   0    4.93    2.04
   1  27   0    3.22    0.65
   1 -27   0    2.17    2.96
  -1  27   0    3.38    0.72
  -1  27   0    6.15    2.55
  -3  27   0    1.28    0.66
   3  27   0    1.73    1.55
  -3 -27   0    1.69    0.88
   3  27   0    2.95    1.12
   3 -27   0    2.07    1.09
  -3 -27   0    0.77    2.55
   3  27   0    1.43    0.80
   3  27   0    3.36    0.99
  -3  27   0    2.23    0.86
   3 -27   0    2.81    1.02
   3  27   0    1.21    0.63
  -3 -27   0    0.73    0.89
  -3 -27   0    0.06    2.25
   3 -27   0    2.62    0.80
  -3  27   0    1.34    0.96
   3  27   0    2.55    0.75
  -5 -27   0   -4.77    2.93
   5  27   0    1.67    1.26
  -5 -27   0    2.57    2.89
   5  27   0    0.50    1.33
   5  27   0    1.95    1.30
   5 -27   0    2.18    1.24
   5 -27   0    1.98    1.53
   5 -27   0    1.43    1.71
  -5  27   0    2.17    1.15
  -5  27   0    2.34    1.32
  -5 -27   0    1.19    1.83
   5 -27   0    1.10    1.86
   7 -27   0   -4.58    1.65
   7 -27   0    0.63    1.42
  -7 -27   0   -0.44    4.06
  -7 -27   0   -3.22    2.10
   7  27   0    3.42    1.68
  -7  27   0   -2.88    1.42
   7 -27   0    1.44    2.33
   0 -28   0    3.39    3.19
   0 -28   0    3.44    2.85
   0  28   0    1.54    0.54
   0  28   0    0.78    1.05
   0  28   0    3.68    3.18
   0  28   0    1.00    0.49
   0 -28   0    0.88    0.61
   0  28   0    1.44    0.73
   0 -28   0    1.44    0.56
   0 -28   0   -0.16    0.98
   0 -28   0    2.84    2.76
   0 -28   0    1.48    1.37
   2 -28   0    7.94    4.17
  -2  28   0   -0.10    0.54
  -2  28   0    7.46    4.80
   2  28   0    0.99    0.87
   2 -28   0    0.58    3.99
  -2  28   0   -1.17    3.29
   2 -28   0    1.41    0.55
  -2  28   0    1.79    1.00
  -2 -28   0    9.46    2.96
  -2  28   0    1.46    0.67
   2 -28   0   -5.70    4.00
   2  28   0    0.24    0.52
   2  28   0    0.04    0.67
  -2  28   0   -3.79    3.17
   2  28   0    1.25    0.57
  -2 -28   0    3.27    2.46
  -2 -28   0    0.33    0.60
  -2 -28   0    0.14    0.68
   4 -28   0   -0.41    1.20
   4  28   0    1.06    0.95
  -4  28   0    2.83    1.26
  -4  28   0    2.30    1.10
   4 -28   0   -0.26    1.34
  -4 -28   0    0.08    2.93
   4 -28   0    1.37    1.11
  -4 -28   0    2.11    2.98
  -4 -28   0    2.08    1.39
   4  28   0    2.39    1.05
  -4  28   0    1.95    1.08
   4  28   0    2.43    1.27
   4  28   0   -1.20    1.39
   4  28   0    1.35    0.84
  -6  28   0   -0.74    1.50
  -6  28   0    2.03    1.36
   6 -28   0   -3.04    2.04
   6  28   0    3.19    2.05
   6 -28   0   -0.93    1.26
  -6 -28   0    0.66    2.15
  -6 -28   0    4.66    4.95
   6  28   0    1.33    1.53
   6 -28   0   -3.93    2.28
   6 -28   0    3.41    1.72
   6  28   0    1.45    2.11
  -6 -28   0    1.96    3.55
   1 -29   0    7.84    1.75
   1  29   0    9.58    1.25
   1  29   0    7.31    1.11
  -1  29   0    0.20    3.88
  -1 -29   0    7.08    0.98
  -1 -29   0    7.11    1.13
  -1  29   0   10.43    3.13
  -1 -29   0    6.67    2.16
   1 -29   0    7.21    1.14
  -1  29   0    7.44    3.17
   1 -29   0    6.45    3.88
  -1 -29   0    9.44    3.67
  -1  29   0    7.04    1.55
  -1 -29   0    7.64    3.53
  -1 -29   0    8.87    1.21
   1 -29   0    3.16    3.29
   1 -29   0   11.32    3.40
  -1 -29   0    8.68    2.40
   1  29   0    7.90    1.38
  -1  29   0    9.16    1.15
   1 -29   0    8.93    1.08
   1  29   0    7.50    4.28
   1  29   0    8.12    1.08
  -1  29   0    6.85    1.09
  -3  29   0    8.02    1.74
   3  29   0    7.09    1.14
  -3 -29   0    5.16    1.33
   3  29   0    3.58    1.19
  -3  29   0    7.74    1.30
   3 -29   0    4.72    1.27
   3  29   0    5.70    1.04
   3  29   0    6.09    1.04
   3  29   0    6.47    1.45
  -3 -29   0    5.04    1.23
   3 -29   0    9.02    1.83
  -3 -29   0    6.91    3.69
  -3 -29   0    2.58    2.96
  -3  29   0   10.14    1.51
   3 -29   0    5.97    1.06
  -5 -29   0    3.80    3.19
   5  29   0    4.34    1.60
  -5 -29   0    3.91    2.12
   5 -29   0    4.17    1.93
  -5  29   0    5.58    1.68
  -5 -29   0    6.87    3.61
   5  29   0    1.12    1.46
  -5  29   0    4.77    1.46
   5  29   0    2.57    1.41
   5 -29   0    5.08    1.97
   5 -29   0    2.00    1.59
   0 -30   0    0.29    0.59
   0 -30   0   -2.11    3.26
   0  30   0    1.35    0.83
   0 -30   0    1.39    1.14
   0  30   0    2.56    0.70
   0  30   0    1.81    1.11
   0  30   0    4.97    4.01
   0 -30   0    7.23    3.45
   0 -30   0    0.90    1.63
   0 -30   0    2.42    0.68
   0  30   0    1.74    0.61
  -2  30   0    3.34    1.32
  -2  30   0    2.84    0.88
  -2 -30   0    1.34    0.84
   2 -30   0    1.97    0.69
  -2 -30   0    2.13    2.86
   2  30   0    3.16    0.92
  -2 -30   0    1.80    0.76
  -2  30   0    1.73    0.74
  -2 -30   0    2.90    2.87
   2  30   0    2.13    1.10
   2  30   0    3.48    0.76
   2  30   0    1.02    0.66
  -4 -30   0   -4.54    3.00
   4  30   0    1.43    1.40
   4 -30   0    1.07    1.14
  -4 -30   0   -1.92    1.44
  -4  30   0    1.44    1.00
  -4 -30   0    1.82    3.11
  -4  30   0    1.46    1.17
   4  30   0    2.51    1.16
  -4  30   0    0.74    1.13
   4  30   0   -0.38    1.50
   4 -30   0    1.19    1.42
   4  30   0    0.86    0.98
   4 -30   0    1.00    1.45
   4  30   0    0.45    1.01
  -6  30   0   -1.24    1.38
  -6  30   0    0.25    1.69
   6 -30   0    1.40    1.88
   6 -30   0   -1.31    2.31
   6  30   0    0.79    2.19
  -6 -30   0    1.22    3.52
  -6 -30   0    3.28    2.38
   6 -30   0    1.46    1.49
   6  30   0    1.00    1.73
  -1  31   0   23.90    2.09
  -1 -31   0   28.26    3.95
   1 -31   0   22.87    2.07
   1 -31   0   21.19    2.59
  -1 -31   0   22.30    1.96
  -1  31   0   20.84    2.00
  -1 -31   0   22.80    3.16
   1  31   0   22.28    2.04
   1  31   0   22.76    1.97
   1  31   0   24.12    2.35
   1 -31   0   23.66    1.89
  -1 -31   0   24.24    2.03
  -1 -31   0   22.54    2.14
  -1  31   0   19.61    2.67
   1  31   0   18.25    1.93
   3  31   0   13.99    1.69
  -3 -31   0   17.68    2.01
   3  31   0   12.46    1.96
  -3  31   0   11.59    1.67
  -3 -31   0   13.80    2.04
   3  31   0   14.73    1.66
  -3 -31   0    4.19    3.39
   3  31   0   13.74    1.82
   3  31   0   17.67    1.78
   3 -31   0   13.04    1.69
  -3 -31   0   10.42    3.65
  -3  31   0   14.67    1.90
   3 -31   0   14.58    2.20
   3 -31   0   12.57    1.81
  -3  31   0   11.82    2.06
  -5 -31   0   10.13    3.74
  -5 -31   0    8.61    3.99
   5 -31   0    4.45    2.29
  -5 -31   0    3.74    2.27
   5 -31   0    3.37    2.02
   5  31   0    5.76    1.69
   5 -31   0    4.21    1.65
  -5  31   0    6.39    1.60
   5  31   0    7.04    1.94
  -5  31   0   12.01    1.88
   5  31   0    6.88    1.84
   0 -32   0  138.84    9.21
   0 -32   0  142.25    8.31
   0 -32   0  135.88    8.39
   0  32   0  135.58    8.66
   0  32   0  127.11    8.70
   0  32   0  136.15    8.35
   0  32   0  142.57    8.52
  -2  32   0  107.73    7.17
   2  32   0  105.74    7.19
  -2 -32   0  122.18    7.21
   2  32   0  114.39    7.50
  -2 -32   0  110.46    9.75
  -2  32   0  111.84    7.16
   2 -32   0  113.21    6.97
   2  32   0  107.60    7.00
  -2  32   0  118.91    7.91
  -2 -32   0  115.18    7.32
  -2 -32   0  102.48    9.26
   4  32   0   64.98    4.61
  -4 -32   0   47.02    6.89
  -4  32   0   64.59    4.78
   4 -32   0   69.09    5.60
   4 -32   0   62.55    4.88
   4  32   0   62.92    4.56
  -4 -32   0   62.19    5.22
   4 -32   0   59.46    4.96
  -4 -32   0   54.84    7.74
  -4  32   0   60.42    4.95
   4  32   0   62.17    4.49
  -4  32   0   65.72    4.92
   4  32   0   58.08    4.80
   4  32   0   67.14    5.08
  -6 -32   0   24.10    3.76
   6 -32   0   28.19    3.18
  -6  32   0   32.14    3.42
   6  32   0   24.61    4.35
  -6 -32   0   23.99    5.46
   6  32   0   20.31    3.06
   6 -32   0   29.16    4.36
   6 -32   0   21.62    3.31
  -6  32   0   30.35    3.13
  -1 -33   0    9.00    1.31
  -1  33   0    4.87    1.12
  -1 -33   0    6.64    2.73
   1  33   0    5.69    1.30
   1  33   0    7.53    1.53
  -1  33   0    7.62    1.23
  -1  33   0    5.85    1.72
   1  33   0    7.11    1.22
  -1 -33   0   11.49    2.43
   1 -33   0    9.10    1.19
   1  33   0    7.34    1.14
   1 -33   0    7.59    2.09
   1 -33   0    7.98    1.30
  -1 -33   0    6.87    1.24
   3  33   0    3.39    1.41
  -3  33   0    5.44    1.37
   3  33   0    5.72    1.22
  -3  33   0    7.05    1.33
  -3 -33   0    8.26    1.56
  -3 -33   0    3.34    3.81
  -3  33   0    5.60    1.50
   3 -33   0    4.87    1.21
   3 -33   0    6.42    1.67
   3 -33   0    8.09    1.71
  -3 -33   0    3.18    1.23
   3  33   0    6.57    1.68
   3  33   0    5.02    1.14
  -3 -33   0    4.69    4.12
  -5 -33   0    6.73    2.45
   5 -33   0    5.47    2.42
   5  33   0    5.38    1.63
   5 -33   0    0.03    1.68
  -5 -33   0    3.15    4.21
   5  33   0    1.01    1.95
   5  33   0    4.28    1.81
  -5 -33   0   -1.06    3.39
   5 -33   0    3.44    2.51
  -5  33   0    2.42    1.36
  -5  33   0    5.79    1.63
   0  34   0    4.80    1.36
   0  34   0    2.89    1.14
   0  34   0    2.65    0.81
   0 -34   0    1.68    0.81
   0 -34   0    1.79    0.74
   0  34   0    2.51    0.81
   0 -34   0    2.82    2.05
   2 -34   0    1.47    0.97
   2 -34   0    1.54    0.79
   2  34   0    1.88    0.80
  -2  34   0    2.22    0.86
  -2 -34   0   -0.53    3.20
  -2 -34   0    0.39    3.41
  -2  34   0    1.30    1.29
   2  34   0    0.63    1.31
  -2 -34   0    2.47    0.97
  -2  34   0    2.63    0.93
  -2 -34   0    2.18    0.94
   2  34   0    1.25    1.02
  -4 -34   0    2.08    1.75
   4  34   0   -0.11    1.36
  -4  34   0    1.58    1.19
  -4 -34   0   -0.98    3.70
  -4 -34   0    0.75    4.05
   4  34   0    3.37    1.98
   4  34   0    0.37    1.32
   4 -34   0   -1.49    1.54
   4  34   0   -0.14    1.10
  -4  34   0    0.49    1.26
  -4  34   0    2.14    1.39
   4 -34   0   -1.07    1.42
   4  34   0    1.41    1.70
   4 -34   0    0.96    1.79
   6 -34   0    1.60    2.19
  -6 -34   0    0.18    2.58
  -6  34   0    1.94    1.54
  -6 -34   0    6.25    4.14
  -6  34   0   -2.73    1.86
   6 -34   0   -3.33    1.45
   6  34   0    0.53    1.86
   6 -34   0   -1.26    2.59
   1  35   0   10.75    1.89
  -1  35   0    9.57    1.44
  -1  35   0   10.03    1.58
   1  35   0   10.41    1.59
   1 -35   0   12.82    1.72
  -1 -35   0   10.60    3.13
   1 -35   0   16.26    2.60
   1 -35   0    9.66    1.33
   1  35   0   11.11    1.49
  -1 -35   0    9.36    1.44
  -1 -35   0   11.94    1.82
  -1  35   0    8.56    1.98
  -1 -35   0    9.65    2.49
   1  35   0   10.01    1.51
  -3 -35   0   12.15    4.99
   3 -35   0    8.02    1.43
  -3  35   0    7.01    1.40
  -3  35   0    6.84    1.57
   3  35   0    6.33    1.95
  -3  35   0    7.01    1.66
  -3 -35   0   11.99    4.64
   3  35   0    4.78    1.58
  -3 -35   0    6.33    1.51
  -3 -35   0    9.49    1.92
   3  35   0    6.90    1.33
   3 -35   0    7.35    2.12
   3 -35   0    5.37    1.66
  -5 -35   0    6.12    4.22
  -5 -35   0    8.16    8.01
  -5  35   0    4.57    1.61
  -5  35   0    2.16    1.77
   5  35   0    0.90    2.19
  -5 -35   0    7.36    2.49
   5 -35   0    1.36    1.68
   5  35   0    6.10    1.83
   5 -35   0    2.70    2.66
   5  35   0    1.54    2.13
   0 -36   0   -0.15    0.76
   0  36   0    0.16    0.73
   0  36   0   -1.12    1.02
   0 -36   0   -1.36    0.75
   0  36   0    2.66    1.25
   0 -36   0   -2.12    2.11
   0  36   0    0.20    0.79
   2  36   0   -0.15    1.44
   2  36   0   -0.23    1.05
  -2 -36   0   -2.05    3.31
  -2 -36   0   -3.19    3.45
  -2  36   0   -0.40    0.81
  -2  36   0    0.24    1.37
  -2  36   0    2.34    1.05
   2 -36   0   -0.99    0.90
   2  36   0    1.15    0.89
  -2 -36   0    0.24    1.02
  -2 -36   0    1.45    0.97
   2 -36   0   -0.38    0.85
  -4  36   0    1.06    1.32
   4  36   0    0.70    1.48
   4 -36   0    0.99    1.59
  -4  36   0    3.10    1.38
  -4 -36   0   -4.50    4.61
   4 -36   0    1.24    1.89
   4 -36   0    1.15    1.95
   4  36   0   -1.42    2.13
  -4  36   0    0.06    1.44
   4  36   0    0.92    1.22
  -4 -36   0   -0.42    1.60
   6 -36   0    0.21    2.32
  -6 -36   0   -1.25    2.56
   6  36   0    0.84    2.18
  -6  36   0    0.92    1.54
  -6 -36   0    1.43    4.43
  -6  36   0   -2.63    1.90
   6 -36   0   -1.26    1.65
   6 -36   0    2.57    3.00
   1  37   0    1.69    1.34
  -1 -37   0   -1.02    0.86
   1  37   0    2.10    1.02
  -1  37   0    0.86    0.94
  -1  37   0    1.12    0.82
   1 -37   0    3.24    1.01
  -1 -37   0    3.27    2.84
   1  37   0    0.84    0.87
  -1 -37   0    0.92    0.93
   1 -37   0    1.09    0.86
  -1  37   0    1.17    1.52
  -3 -37   0   -1.36    4.56
  -3  37   0    1.41    1.16
   3 -37   0   -0.02    1.76
   3  37   0    1.34    1.52
   3  37   0    1.21    0.96
  -3 -37   0    6.36    4.68
  -3  37   0    1.65    1.51
   3 -37   0    0.12    1.36
   3  37   0   -0.14    1.87
  -3  37   0    0.42    1.21
  -3 -37   0    2.48    1.24
  -3 -37   0    1.88    1.34
   3 -37   0    0.40    1.34
   3 -37   0   -0.42    1.20
  -5  37   0    1.71    1.54
  -5 -37   0   -0.67    2.27
  -5 -37   0    2.27    4.41
   5 -37   0    2.55    1.94
   5 -37   0   -2.03    2.64
  -5  37   0    3.38    1.78
   5  37   0   -0.15    1.66
   0 -38   0    6.41    1.43
   0  38   0    5.53    1.20
   0 -38   0    6.39    1.40
   0 -38   0    6.23    2.80
   0  38   0    6.32    1.17
   0 -38   0    8.34    1.27
   0  38   0    7.04    1.57
  -2 -38   0    4.78    3.89
   2  38   0    4.11    1.48
   2  38   0    5.01    1.94
  -2 -38   0    3.72    4.00
  -2 -38   0    7.66    1.58
  -2  38   0    4.92    1.32
   2  38   0    5.63    1.18
   2 -38   0    4.88    1.40
  -2  38   0    3.31    1.73
   2 -38   0    5.79    1.16
  -2 -38   0    5.06    1.39
  -2  38   0    6.25    1.45
   4  38   0    0.20    2.45
   4 -38   0    3.96    2.49
  -4  38   0    6.69    1.71
  -4  38   0    0.48    1.44
  -4 -38   0    3.79    4.76
   4 -38   0    4.52    2.22
  -4 -38   0   -0.74    1.80
  -4  38   0    4.21    1.81
  -4 -38   0    0.56    5.48
   4  38   0    3.65    1.60
   4 -38   0    2.39    1.90
   1  39   0    0.24    0.98
   1  39   0    0.65    0.95
  -1 -39   0    5.70    3.35
  -1  39   0    0.25    0.90
   1 -39   0    1.01    0.99
   1 -39   0    0.03    0.97
  -1  39   0    1.04    1.52
  -1  39   0   -0.87    0.91
  -1 -39   0    0.30    1.07
   1  39   0    0.57    1.50
  -1 -39   0   -0.88    1.00
  -3  39   0    1.05    1.23
   3  39   0    0.33    1.11
  -3  39   0   -0.14    1.35
  -3 -39   0    0.14    1.33
  -3 -39   0   -1.83    5.33
  -3  39   0    1.05    1.41
   3 -39   0   -0.31    1.47
  -3 -39   0    1.75    5.30
   3 -39   0    0.17    1.86
   3  39   0   -4.50    2.05
   3  39   0    0.56    1.67
   3 -39   0    2.08    1.66
   3 -39   0    0.33    1.35
  -5  39   0   -0.64    1.80
   5 -39   0   -1.09    1.96
   5 -39   0   -1.92    2.90
  -5 -39   0   -3.52    2.48
   5  39   0    0.87    1.87
  -5 -39   0    3.65    4.53
  -5  39   0    1.68    1.63
   0 -40   0   -0.02    1.04
   0  40   0    0.70    1.04
   0 -40   0   -0.04    1.06
   0  40   0    0.88    0.98
   0 -40   0    0.47    2.60
   0  40   0    0.38    1.49
   0 -40   0    0.66    0.97
  -2  40   0    0.10    1.58
   2  40   0   -0.84    1.37
   2  40   0    2.32    1.86
  -2 -40   0    0.81    1.20
  -2 -40   0    1.16    4.43
  -2  40   0   -1.01    1.17
   2 -40   0    0.40    1.18
   2 -40   0    2.15    1.30
   2  40   0   -0.38    0.99
  -2  40   0    2.74    1.19
  -2 -40   0    1.44    1.26
  -4 -40   0   -5.91    7.27
   4  40   0    1.91    1.52
   4 -40   0    4.13    2.13
  -4 -40   0   -3.82    5.09
  -4  40   0    0.95    1.76
   4 -40   0    1.29    2.41
  -4 -40   0   -1.82    1.83
   4 -40   0    4.40    2.14
  -4  40   0   -0.82    1.55
  -4  40   0   -0.96    1.42
   1 -41   0   22.93    2.28
   1 -41   0   19.79    2.38
   1  41   0   20.00    2.56
   1  41   0   18.89    2.18
  -1 -41   0   19.31    4.60
  -1  41   0   20.14    2.30
  -1 -41   0   20.66    2.55
   1  41   0   19.03    2.74
  -1  41   0   15.65    2.76
  -1  41   0   21.95    2.52
  -1 -41   0   20.67    2.23
  -3  41   0   12.75    2.26
   3 -41   0   12.50    2.83
  -3 -41   0   12.17    5.55
   3  41   0   14.37    2.09
  -3  41   0   18.24    2.37
   3  41   0   12.11    2.40
   3 -41   0   11.77    2.11
  -3  41   0   11.50    2.12
  -3 -41   0    7.54    6.12
   3  41   0   12.87    2.96
   3 -41   0   18.48    2.75
   3 -41   0   16.60    2.47
  -3 -41   0    9.74    2.00
  -5  41   0    8.90    2.26
   5 -41   0    2.39    3.26
   5  41   0    8.62    2.33
  -5  41   0    7.62    2.30
   5 -41   0    9.93    2.83
  -5 -41   0   -0.86    4.77
   5 -41   0    6.97    2.69
   5 -41   0    6.86    2.50
  -5 -41   0    4.39    2.80
   0 -42   0    0.58    2.99
   0  42   0   -0.05    1.13
   0  42   0    0.26    1.13
   0 -42   0    0.35    1.22
   0 -42   0    0.51    1.24
   0 -42   0    0.79    1.20
   0  42   0    1.72    1.61
   2 -42   0   -0.68    1.35
  -2  42   0    2.13    1.24
   2  42   0    1.16    1.21
  -2  42   0    2.32    1.85
   2  42   0    0.84    1.55
   2 -42   0    0.83    1.42
  -2 -42   0    8.05    4.87
  -2 -42   0    0.25    1.39
  -2  42   0    2.04    1.25
  -2 -42   0    1.15    1.37
   2 -42   0   -3.28    1.72
   2  42   0    0.26    2.10
  -4  42   0   -1.80    1.63
  -4 -42   0   -1.45    5.88
   4 -42   0    2.74    2.03
  -4  42   0    0.89    1.69
   4 -42   0    2.73    2.52
   4 -42   0   -1.37    2.35
  -4  42   0    2.94    1.95
  -4 -42   0   -1.78    1.94
   4  42   0    0.64    1.71
  -1  43   0    5.63    2.05
   1 -43   0    8.22    1.74
  -1 -43   0    7.96    1.87
  -1  43   0    2.70    1.47
  -1  43   0    4.75    1.50
  -1 -43   0    8.28    4.01
   1  43   0    3.52    1.56
   1 -43   0    4.22    1.48
  -1 -43   0    4.84    1.45
   1  43   0    5.77    1.41
   3 -43   0    4.96    2.16
  -3  43   0    5.72    1.79
   3  43   0    4.44    2.24
   3 -43   0    6.82    2.12
  -3 -43   0    3.64    1.72
  -3  43   0    6.67    2.15
   3  43   0    3.68    1.59
  -3 -43   0    2.77    6.36
  -3  43   0    6.82    1.99
   3 -43   0    4.05    2.42
   0 -44   0   18.10    2.66
   0 -44   0   20.42    2.48
   0  44   0   19.34    2.65
   0  44   0   22.56    2.44
  -2  44   0   11.50    2.80
  -2 -44   0   11.94    2.30
   2 -44   0   21.66    2.56
  -2  44   0   17.70    2.41
   2  44   0   11.22    2.48
   2  44   0   13.38    2.85
  -2 -44   0   21.42    5.38
  -2  44   0   13.05    2.23
   2 -44   0   11.54    2.86
  -2 -44   0   16.09    2.20
   2  44   0   13.51    1.98
   2 -44   0   15.19    2.19
   4 -44   0    8.43    2.54
   4 -44   0    2.14    3.65
  -4  44   0   10.99    2.44
  -4 -44   0    3.38    6.27
   4 -44   0    9.81    3.40
  -4  44   0    5.58    2.10
  -4 -44   0    2.00    2.30
   4  44   0    7.85    2.14
  -4  44   0   14.00    2.55
   1 -45   0   12.08    2.05
  -1 -45   0   18.47    4.56
  -1 -45   0   14.22    2.43
   1 -45   0   15.61    2.60
   1  45   0   16.58    2.13
  -1  45   0   13.21    1.96
  -1  45   0   11.43    2.48
  -1  45   0   15.73    2.34
   1 -45   0   14.13    2.36
   1  45   0   12.41    2.19
  -1 -45   0   12.88    1.96
  -3 -45   0   22.24    7.11
   3  45   0    6.81    1.89
   3  45   0    5.76    2.89
   3 -45   0    8.48    2.27
  -3 -45   0    8.56    2.14
  -3  45   0   12.25    2.18
  -3  45   0    9.57    2.24
   3 -45   0    8.18    2.76
  -3  45   0   12.42    2.72
   3 -45   0   11.85    2.85
   0 -46   0    1.11    1.64
   0 -46   0   -1.17    1.58
   0  46   0    0.98    1.36
   0  46   0    1.11    1.48
  -2 -46   0    1.40    1.59
  -2 -46   0    2.36    1.68
   2 -46   0   -0.62    2.30
  -2  46   0   -2.22    1.38
   2  46   0    0.53    2.06
   2 -46   0   -1.59    1.53
  -2 -46   0   -8.16    5.32
   2  46   0   -1.06    1.34
  -2  46   0   -2.11    1.48
  -2  46   0    6.34    2.33
   2 -46   0   -2.21    1.93
  -1  47   0    1.41    1.60
  -1  47   0    5.06    1.67
  -1 -47   0    4.86    1.86
   1  47   0    2.58    1.96
  -1 -47   0    1.82    1.67
   1 -47   0    5.41    1.87
  -1 -47   0    1.36    4.60
  -1  47   0    2.87    2.54
   1 -47   0    6.71    1.99
   1 -47   0    0.98    1.89
   1  47   0    3.03    1.48
  -3  47   0    4.87    1.86
  -3 -47   0   -0.51    1.86
   3  47   0    4.07    1.84
   3 -47   0    3.69    2.14
  -3  47   0    5.84    2.47
   3  47   0   -0.07    4.34
  -3  47   0    4.25    2.11
   3 -47   0    1.13    2.79
  -3 -47   0    4.57    7.22
   0  48   0    0.97    1.46
   0  48   0   -1.34    1.64
   0 -48   0   -1.92    1.69
   0 -48   0    1.86    1.81
  -2  48   0    0.52    2.43
  -2  48   0    0.54    1.66
   2  48   0    1.48    2.39
   2 -48   0    2.73    2.73
  -2 -48   0    0.13    1.75
   2 -48   0    0.64    1.78
  -2  48   0    1.08    1.60
  -2 -48   0    2.30    5.73
  -2 -48   0    0.44    1.83
   2  48   0    0.08    1.54
  -1  49   0   -3.40    3.70
   1  49   0   -0.13    1.93
  -1 -49   0    0.08    1.70
  -1  49   0    0.25    1.63
   1  49   0   -0.09    1.58
  -1 -49   0    0.61    1.90
   1 -49   0   -2.28    1.88
  -1  49   0    0.43    1.65
   1 -49   0    0.75    1.72
   0  50   0    0.24    1.65
   0 -50   0   -0.71    1.84
   0  50   0    0.28    1.87
   2  50   0    3.40    2.80
   2 -50   0    1.74    1.95
   2  50   0    0.54    1.70
  -2 -50   0    3.17    1.98
  -2  50   0    0.12    1.70
  -2  50   0   -0.30    1.95
   2 -50   0    0.13    3.00
  -2  50   0   -1.72    2.73
  -1  51   0    1.14    1.95
  -1 -51   0    4.50    2.21
   1 -51   0    4.88    2.37
   1  51   0   -1.77    2.33
   1  51   0    5.68    1.99
  -1  51   0    2.45    1.96
   0   0   1    3.80    0.63
   0   0   1    3.56    0.31
   0   0   1    4.18    0.65
   0   0  -1    3.16    0.65
   0   0  -1    5.09    0.75
   0   0  -1    5.19    0.77
   0   0  -1    3.18    0.29
   0   0   1    5.25    0.85
   2   0   1    2.52    0.55
  -2   0  -1    2.66    0.60
   2   0   1    2.68    0.64
  -2   0   1    3.18    0.59
   2   0   1    2.70    1.54
  -2   0   1    4.95    1.91
   2   0   1    2.80    0.52
   2   0   1    2.64    1.56
  -2   0  -1    2.37    0.71
   2   0  -1    1.88    1.79
   2   0  -1    3.05    0.74
  -2   0   1    2.55    0.43
  -2   0   1    3.81    1.77
  -2   0   1    2.76    0.51
  -2   0   1    2.04    0.50
   2   0   1    3.39    0.74
  -2   0  -1    2.52    0.53
   2   0  -1    2.95    0.61
   2   0  -1    2.17    1.27
   2   0  -1    3.09    0.46
  -2   0  -1    0.34    1.37
  -2   0  -1    1.58    1.44
   2   0   1    2.23    0.46
  -2   0  -1    2.07    0.46
   2   0  -1    2.42    1.43
   2   0  -1    2.52    0.48
   2   0   1    1.97    1.60
  -2   0   1    4.22    1.94
  -2   0  -1    3.26    1.64
  -2   0  -1    3.95    0.91
  -2   0  -1    3.67    0.82
  -4   0  -1   -3.90    4.76
  -4   0   1    1.87    1.15
  -4   0  -1    2.02    0.91
  -4   0   1    0.80    0.89
  -4   0  -1    1.81    0.59
   4   0  -1    0.70    0.48
  -4   0   1   -2.98    4.94
  -4   0   1   -3.86    4.83
  -4   0  -1    0.58    4.32
  -4   0  -1    0.93    1.26
   4   0  -1    1.52    0.66
   4   0   1    1.53    0.61
   4   0   1    4.95    3.74
  -4   0  -1    1.06    1.36
  -4   0   1    2.40    0.94
   4   0   1    0.36    0.64
  -4   0  -1   10.16    4.60
   4   0   1    2.98    4.17
   4   0  -1    0.28    3.78
   4   0  -1    2.91    0.80
   4   0   1    0.47    0.47
   4   0  -1    0.79    3.79
  -4   0   1    1.51    0.60
  -4   0   1    2.72    0.83
  -4   0  -1   -1.03    0.91
  -4   0   1   -0.88    5.11
   4   0   1    2.69    3.94
   4   0  -1   -4.22    5.14
   4   0  -1    1.34    0.50
  -4   0  -1    2.39    0.61
   4   0   1    1.65    0.70
  -6   0   1    0.83    1.44
   6   0  -1    0.97    0.95
   6   0  -1    0.10    0.81
   6   0   1   -0.85    0.80
  -6   0  -1   -1.51    1.25
   6   0  -1    1.67    1.12
  -6   0   1    0.43    1.11
   6   0   1    1.43    0.79
   6   0  -1   -0.51    0.94
  -6   0   1   -2.34    2.28
  -6   0  -1    3.12    2.09
  -6   0  -1    0.18    1.44
   6   0   1    0.82    0.91
  -6   0   1    0.63    2.10
   6   0  -1    0.64    0.98
   6   0   1    0.87    0.96
   8   0   1   -1.38    1.49
  -8   0   1   -1.17    2.23
   8   0   1   -0.04    1.52
  -8   0  -1   -0.38    1.95
  -8   0   1   -0.18    2.27
   8   0  -1    1.03    1.49
   8   0  -1    1.89    1.56
   8   0   1    0.08    1.27
   1  -1   1   43.68    2.97
  -1   1   1   48.74    2.88
   1   1  -1   48.75    3.74
  -1   1   1   50.33    3.61
  -1  -1  -1   47.13    3.53
   1  -1   1   48.50    3.57
  -1   1   1   51.01    3.73
   1   1  -1   45.86    2.85
   1  -1   1   45.16    3.51
   1   1  -1   49.02    3.62
  -1  -1  -1   49.30    3.19
  -1   1   1   54.61    3.08
  -1   1   1   52.73    3.82
  -1  -1  -1   48.14    3.44
   1   1  -1   44.37    3.65
   1  -1  -1   47.24    2.87
  -1  -1   1   48.10    3.65
  -1  -1   1   49.65    3.59
   1   1   1   51.86    3.73
   1  -1  -1   52.33    3.66
   1   1   1   46.80    2.92
  -1  -1   1   50.15    2.96
   1   1   1   50.52    2.91
   1   1   1   48.04    3.62
   1   1   1   51.19    3.01
  -1   1  -1   48.53    3.58
   1  -1  -1   52.23    3.77
  -1   1  -1   46.22    3.34
  -1   1  -1   46.30    3.42
  -1   1  -1   50.60    3.24
  -1  -1   1   49.78    2.87
  -1  -1   1   46.08    3.74
  -1   1  -1   45.51    3.08
  -1  -1   1   54.76    3.12
   1  -1  -1   50.52    3.74
  -1   1  -1   50.33    3.45
  -1  -1   1   48.15    2.99
   3  -1   1   23.60    1.98
   3   1  -1   24.18    1.66
  -3   1   1   24.36    4.61
   3  -1   1   34.09    5.19
   3  -1   1   21.23    2.08
   3  -1   1   28.10    4.87
   3  -1   1   25.06    4.27
  -3   1   1   21.77    1.95
  -3  -1  -1   20.54    1.71
  -3   1   1   28.39    4.99
  -3  -1  -1   22.00    4.80
  -3   1   1   19.41    1.61
   3  -1   1   23.57    1.87
   3  -1   1   23.38    1.79
   3   1  -1   18.57    3.75
  -3  -1  -1   19.41    2.02
  -3  -1  -1   22.09    4.23
   3   1  -1   30.78    5.94
   3   1  -1   22.12    1.91
  -3  -1  -1   23.60    2.76
  -3  -1  -1   22.02    2.22
   3   1  -1   23.95    1.97
  -3   1   1   20.86    2.06
   3   1  -1   14.23    3.40
   3   1  -1   20.60    1.66
   3  -1   1   21.36    1.79
  -3  -1  -1   25.92    4.42
  -3   1   1   28.66    5.15
  -3   1   1   20.34    1.77
  -3   1   1   22.25    2.06
  -3  -1  -1   22.82    1.82
  -3  -1  -1   22.09    2.39
  -3   1  -1   24.93    2.09
  -3   1  -1   28.39    5.54
  -3   1  -1   16.81    2.39
   3   1   1   25.88    4.52
   3   1   1   24.25    1.99
  -3  -1   1   26.90    4.86
  -3  -1   1   21.42    1.77
  -3  -1   1   19.76    4.42
  -3  -1   1   25.83    4.65
  -3   1  -1   23.79    1.83
  -3   1  -1   22.78    2.14
  -3   1  -1   23.86    2.64
  -3  -1   1   24.92    2.18
   3   1   1   25.79    4.69
   3   1   1   21.29    1.78
   3  -1  -1   21.70    1.69
   3   1   1   23.09    1.82
   3   1   1   22.47    1.86
   3  -1  -1   32.07    6.28
  -3   1  -1   21.57    4.10
   3  -1  -1   22.44    1.75
   3   1   1   23.05    2.16
  -3  -1   1   22.44    2.02
   3  -1  -1   14.87    3.33
   3  -1  -1   16.98    3.48
   3  -1  -1   23.22    2.01
  -3   1  -1   23.68    4.18
  -3   1  -1   23.63    1.83
   3   1   1   22.83    4.58
  -3  -1   1   22.10    1.63
  -3  -1   1   22.54    1.95
   3  -1  -1   24.74    1.99
   5   1  -1   10.11    1.42
   5  -1   1   10.83    1.42
  -5  -1  -1    9.46    2.23
  -5  -1  -1    7.45    1.82
   5   1  -1   13.24    1.76
  -5   1   1    9.94    1.76
  -5   1   1   23.89    8.78
  -5   1   1   13.11    1.93
  -5  -1  -1   14.33    1.88
   5   1  -1   14.13    1.61
   5   1  -1   13.84    1.39
  -5   1   1    2.54    7.26
   5   1  -1   10.32    1.59
   5   1  -1   18.33    6.66
   5   1  -1    7.42    6.94
  -5   1   1    4.49    8.83
  -5   1   1   10.70    1.27
  -5   1   1   10.46    2.33
   5   1  -1   17.65    8.26
   5  -1   1   11.52    1.73
  -5  -1  -1   11.59    1.35
   5  -1   1   13.08    1.69
  -5  -1  -1   18.03    2.38
   5  -1   1   12.84    1.73
  -5   1   1   13.66    2.02
   5  -1  -1   -2.04    5.98
  -5  -1   1   15.94    2.19
  -5   1  -1   11.76    1.87
  -5  -1   1    5.39    6.73
   5  -1  -1    9.08    1.30
  -5  -1   1   17.42    8.97
   5  -1  -1   14.18    8.76
  -5   1  -1   13.84    2.40
  -5  -1   1   12.76    1.89
   5  -1  -1   18.44    6.45
   5   1   1   11.27    1.70
  -5   1  -1    9.43    2.07
  -5  -1   1   14.72    8.58
   5   1   1   12.18    1.75
   5  -1  -1   12.58    1.50
   5   1   1    8.65    1.36
  -5  -1   1   13.33    2.47
  -5   1  -1   11.35    2.55
  -5   1  -1   10.00    1.34
   5  -1  -1    8.06    1.32
   5  -1  -1   13.72    1.87
  -5   1  -1    9.14    1.37
   5   1   1   10.95    1.54
  -5  -1   1   11.56    2.15
  -5  -1   1    9.81    1.17
   7   1  -1    2.85    1.36
   7   1  -1    3.84    1.46
   7   1  -1    6.30    1.39
   7   1  -1    2.46    1.53
  -7  -1  -1    3.15    2.08
   7  -1   1    4.91    1.45
  -7   1   1    4.97    1.71
   7  -1   1    5.92    1.68
   7  -1   1    3.85    1.32
   7  -1   1    5.23    1.42
  -7  -1  -1   -0.73    2.54
  -7   1   1    3.10    2.08
  -7  -1  -1    4.62    1.94
  -7   1   1    2.09    3.40
  -7  -1   1    7.35    2.28
  -7  -1   1    7.10    1.85
   7  -1  -1    4.04    1.31
  -7   1  -1    5.69    2.01
   7  -1  -1    7.05    1.73
   7  -1  -1    4.74    1.65
   7   1   1    3.59    1.37
  -7   1  -1    5.88    3.13
   7   1   1    4.52    1.44
  -7   1  -1    0.44    1.96
   7   1   1    5.80    1.38
  -7  -1   1    7.12    3.16
   7  -1  -1    4.65    1.38
   7   1   1    2.20    1.13
   0  -2  -1    4.14    0.80
   0  -2  -1    3.97    0.76
   0  -2   1    3.22    0.28
   0  -2  -1    2.85    0.28
   0  -2   1    3.31    0.54
   0   2  -1    3.40    0.34
   0   2   1    3.39    0.29
   0   2  -1    3.01    0.27
   0   2   1    3.40    0.71
   0  -2  -1    3.27    0.72
   0   2  -1    4.42    0.62
   0   2  -1    3.37    0.55
   0   2   1    3.34    0.68
   0  -2   1    3.54    0.55
   0   2   1    4.24    0.75
   0   2   1    3.29    0.25
   0  -2   1    4.38    0.62
   0   2  -1    3.48    0.55
   0  -2  -1    3.41    0.42
   2  -2   1    3.55    0.76
   2  -2   1    2.35    1.49
  -2  -2  -1    4.36    1.05
  -2  -2  -1    2.86    0.58
  -2   2   1    2.73    1.52
  -2  -2  -1    3.28    1.58
   2   2  -1    2.15    0.51
  -2   2   1    3.44    0.50
   2   2  -1    5.10    2.24
  -2   2   1    3.01    0.50
   2   2  -1    2.62    0.48
  -2  -2  -1    3.19    0.92
  -2   2   1    3.12    0.55
  -2  -2  -1    2.64    0.46
  -2  -2  -1    2.09    0.49
   2  -2   1    4.01    0.71
   2   2  -1    2.44    1.41
   2  -2   1    3.68    0.68
  -2   2   1    2.53    0.49
   2   2  -1    2.27    1.54
   2  -2   1    3.13    0.67
  -2  -2  -1    1.85    0.61
   2  -2   1    1.95    0.48
   2   2  -1    1.89    0.47
  -2   2   1    0.88    1.49
  -2  -2  -1    2.78    1.48
   2  -2   1    3.64    1.71
  -2   2   1    3.13    1.68
   2  -2   1    2.12    1.71
   2  -2  -1    3.42    0.56
  -2  -2   1    5.43    2.01
  -2  -2   1    3.05    0.61
   2  -2  -1    3.76    1.91
   2  -2  -1   -0.19    1.15
   2   2   1    2.92    0.54
  -2  -2   1    2.72    1.70
  -2  -2   1    2.46    0.51
  -2   2  -1   -1.67    1.59
   2  -2  -1    2.16    0.60
   2   2   1    5.14    1.81
  -2   2  -1    3.72    0.61
   2  -2  -1    2.28    0.47
  -2  -2   1    2.42    1.71
   2   2   1    3.15    0.55
   2  -2  -1    2.50    1.41
   2   2   1    2.91    0.51
  -2  -2   1    3.45    0.49
  -2  -2   1    2.97    0.52
  -2   2  -1    1.12    1.72
  -2   2  -1    2.89    0.79
   2   2   1    3.30    0.74
   2   2   1    3.02    0.63
  -2   2  -1    2.62    0.60
  -2   2  -1    3.57    0.62
  -4   2   1    1.96    0.97
  -4  -2  -1    0.48    0.89
   4   2  -1    0.41    3.88
   4   2  -1    3.57    0.89
  -4  -2  -1    1.42    0.94
   4  -2   1    1.57    0.75
   4   2  -1    2.49    5.20
  -4   2   1    2.08    0.85
  -4   2   1    0.92    5.23
  -4  -2  -1    4.08    5.58
   4   2  -1   -1.80    3.56
  -4   2   1    4.57    4.55
  -4   2   1    4.97    1.23
  -4  -2  -1    1.10    0.57
  -4  -2  -1    1.68    1.26
   4  -2   1    2.01    0.70
  -4   2   1    1.98    0.66
  -4   2   1    3.34    0.93
   4   2  -1    2.11    0.75
   4   2  -1    2.05    0.66
  -4   2   1   -2.55    5.12
  -4  -2  -1    3.55    1.47
   4  -2   1   -4.56    3.55
   4  -2   1    1.15    3.94
  -4   2   1    1.18    0.91
  -4  -2  -1    3.61    4.65
   4  -2   1    2.47    0.65
  -4   2   1    2.07    0.50
  -4  -2  -1   -2.02    4.39
   4   2  -1    1.64    0.57
   4  -2   1    3.29    4.18
  -4  -2  -1    2.11    0.66
   4  -2   1    1.63    0.62
  -4   2  -1    2.38    0.70
  -4  -2   1    6.65    4.47
   4   2   1    1.83    0.68
   4   2   1    1.85    0.70
  -4   2  -1    0.50    4.13
  -4   2  -1   -2.00    3.93
   4  -2  -1    1.27    0.66
   4  -2  -1    1.66    0.63
  -4   2  -1    1.96    1.06
  -4   2  -1    5.45    1.64
  -4  -2   1    8.12    5.16
  -4  -2   1    0.99    1.03
   4   2   1   -1.35    3.87
   4  -2  -1    3.98    3.61
   4   2   1    0.71    0.46
   4   2   1    2.27    0.72
  -4   2  -1   -2.82    4.37
   4  -2  -1    0.35    5.27
   4  -2  -1    0.24    3.54
  -4   2  -1    3.21    0.92
   4  -2  -1    2.40    0.86
   4   2   1    5.73    3.95
   4   2   1    4.18    4.31
  -4   2  -1    1.30    0.58
  -4  -2   1    2.09    0.60
  -4  -2   1    2.29    1.03
  -4   2  -1    1.29    1.13
  -4  -2   1    1.37    0.72
  -4  -2   1   -4.30    5.32
  -4  -2   1    1.01    1.00
   4  -2  -1    0.89    0.49
   6   2  -1    2.12    1.08
   6   2  -1    0.43    1.08
  -6  -2  -1    0.42    1.35
   6  -2   1    2.04    0.96
   6  -2   1    0.37    1.04
  -6  -2  -1    2.15    1.55
  -6   2   1    0.90    1.37
   6  -2   1    1.47    1.00
  -6  -2  -1    2.20    1.72
   6   2  -1    1.42    0.86
  -6   2   1    1.56    1.27
   6   2  -1   -0.37    0.92
  -6   2   1    3.03    2.18
   6   2  -1    1.49    0.98
   6  -2   1    0.39    0.91
  -6   2  -1    2.36    1.56
   6   2   1    2.01    1.00
  -6  -2   1    0.93    1.35
  -6  -2   1   -0.42    2.00
   6   2   1    1.60    0.87
  -6  -2   1   -0.42    1.98
   6  -2  -1    2.48    1.21
   6  -2  -1    0.59    0.94
   6  -2  -1    1.25    1.10
   6   2   1   -0.41    0.92
  -6   2  -1    0.96    2.11
  -6   2  -1    1.74    0.80
  -6  -2   1    2.44    1.10
   6  -2  -1    2.66    0.96
  -6   2  -1   -1.15    1.36
   6   2   1    2.48    1.07
   6  -2  -1    2.00    1.16
   8   2  -1   -1.01    1.55
   8  -2   1   -0.06    1.48
   8  -2   1    1.83    1.45
   8  -2   1   -0.05    1.20
  -8   2   1   -0.09    2.46
   8   2  -1    0.20    1.59
  -8   2   1    2.54    2.45
  -8  -2  -1   -0.23    2.12
  -8  -2   1   -5.44    2.22
   8  -2  -1   -0.12    1.41
   8   2   1   -1.62    1.52
   8   2   1   -0.41    1.32
   8   2   1    2.14    1.58
   8  -2  -1    0.29    1.60
   8  -2  -1    0.19    1.58
  -8   2  -1   -3.94    1.94
  -8  -2   1   -4.61    2.13
   1   3  -1   24.94    1.65
  -1   3   1   22.92    2.38
  -1  -3  -1   26.46    2.33
   1   3  -1   25.83    2.47
   1   3  -1   24.75    2.35
  -1  -3  -1   28.31    1.98
  -1   3   1   21.52    2.18
  -1  -3  -1   25.68    2.20
  -1   3   1   24.65    2.35
  -1   3   1   25.82    1.58
   1  -3   1   23.10    1.70
   1   3  -1   25.44    1.52
  -1  -3  -1   26.26    2.37
   1   3  -1   26.87    2.50
   1  -3   1   26.26    2.25
  -1   3   1   24.86    1.62
  -1  -3   1   25.60    1.61
  -1   3  -1   26.90    2.25
  -1   3  -1   24.50    1.67
  -1  -3   1   26.23    1.71
  -1   3  -1   25.44    1.72
  -1  -3   1   24.67    2.35
  -1  -3   1   24.54    2.31
   1  -3  -1   25.24    2.28
  -1  -3   1   24.48    1.52
   1  -3  -1   24.64    1.56
   1   3   1   25.68    2.41
  -1   3  -1   25.20    2.13
  -1  -3   1   20.43    2.38
   1  -3  -1   24.61    2.37
  -1  -3   1   25.91    1.63
   1   3   1   24.38    1.58
   1  -3  -1   21.45    2.34
   1   3   1   25.08    1.57
  -1   3  -1   24.75    1.76
   1   3   1   24.71    1.56
   1   3   1   25.92    1.57
  -1   3  -1   25.76    1.67
  -3  -3  -1   11.89    3.37
  -3   3   1   11.07    1.22
  -3  -3  -1    6.15    3.14
   3   3  -1   15.61    4.61
  -3   3   1   11.80    1.58
  -3   3   1   11.77    1.28
   3  -3   1   11.74    1.19
   3  -3   1   12.32    1.21
  -3   3   1   12.01    3.77
   3  -3   1   14.58    1.49
   3   3  -1   11.99    1.07
  -3  -3  -1    8.73    1.72
   3   3  -1   14.60    1.41
  -3   3   1   10.13    3.08
  -3   3   1   11.36    0.99
  -3  -3  -1   12.96    4.03
  -3  -3  -1   13.47    2.31
  -3  -3  -1   13.07    1.66
  -3  -3  -1   10.04    1.11
   3   3  -1   11.12    1.27
  -3   3   1   11.80    1.14
  -3  -3  -1   11.19    1.20
   3  -3   1   16.84    4.14
  -3   3   1   10.10    3.47
   3   3  -1   10.34    3.34
  -3   3   1   11.56    1.46
   3  -3   1   16.66    3.86
   3  -3   1    9.65    3.44
   3   3  -1   12.51    3.19
   3   3  -1   11.49    1.10
   3  -3   1   13.08    1.87
   3  -3   1   10.58    1.19
  -3  -3  -1   16.10    2.05
   3   3   1   11.04    1.24
  -3   3  -1    9.05    3.66
   3   3   1   12.41    1.21
   3  -3  -1   13.10    3.36
  -3   3  -1   11.15    1.21
   3   3   1   16.48    3.70
   3  -3  -1   11.14    1.30
   3  -3  -1   10.39    3.10
  -3   3  -1   12.29    3.34
   3   3   1   10.10    3.50
  -3   3  -1   13.20    2.00
  -3  -3   1   18.63    4.54
  -3  -3   1   14.53    4.08
  -3   3  -1   11.83    1.91
   3  -3  -1   10.65    1.16
   3   3   1    7.94    3.26
   3  -3  -1   13.57    1.18
   3  -3  -1   11.46    1.38
  -3   3  -1   12.63    1.22
  -3   3  -1   12.41    1.45
   3   3   1    9.30    1.28
   3   3   1   12.50    1.20
  -3  -3   1   11.00    1.19
  -3  -3   1   11.63    1.53
  -3  -3   1   11.96    1.00
   3  -3  -1   18.19    5.19
  -3   3  -1    9.65    3.28
  -3  -3   1   12.68    1.37
  -3   3  -1   13.57    1.74
  -3  -3   1   11.21    1.60
  -3  -3   1   16.26    4.72
  -5   3   1    6.99    1.67
  -5   3   1    7.70    1.06
   5  -3   1    5.26    1.16
  -5  -3  -1    4.68    1.44
   5   3  -1    2.10    6.22
   5   3  -1    4.78    1.05
  -5   3   1    7.40    1.85
  -5  -3  -1    3.98    0.89
   5   3  -1   -5.83    8.04
   5   3  -1    5.33    1.30
   5  -3   1    4.73    1.29
  -5   3   1   10.94    7.26
  -5  -3  -1    8.76    2.15
  -5   3   1    6.43    1.44
   5   3  -1    5.10    0.98
   5  -3   1    5.32    1.07
  -5   3   1    7.56    1.69
   5   3  -1    4.70    1.07
   5   3  -1    1.58    6.10
   5   3  -1    6.89    1.18
  -5  -3  -1    6.81    1.50
  -5  -3  -1    6.67    2.00
   5  -3   1    5.13    1.01
  -5   3   1    5.25    8.83
  -5   3   1   -7.88    8.70
  -5   3  -1    6.27    1.74
  -5  -3   1    8.03    1.96
   5   3   1    5.16    1.17
  -5   3  -1    5.58    1.08
   5   3   1    5.53    1.16
  -5  -3   1    5.44    1.67
  -5   3  -1    4.30    1.75
   5  -3  -1    5.96    6.37
   5  -3  -1    6.64    1.15
   5  -3  -1   14.99    8.64
  -5  -3   1   12.24    9.22
   5  -3  -1    4.62    6.18
   5   3   1    5.68    1.08
  -5  -3   1    3.76    6.71
   5  -3  -1    6.68    1.35
   5  -3  -1    6.73    1.17
   5   3   1    5.54    1.08
  -5  -3   1   -0.38    8.17
   5  -3  -1    5.35    1.28
  -5   3  -1    8.20    1.59
  -5  -3   1    2.72    1.12
  -5   3  -1    5.81    0.98
  -5  -3   1    4.80    1.30
  -7  -3  -1    0.63    1.79
  -7  -3  -1    5.47    2.75
   7   3  -1    4.95    1.49
   7  -3   1    0.99    1.26
   7  -3   1    1.65    1.16
  -7  -3  -1    5.26    2.09
  -7   3   1    1.86    1.71
   7  -3   1    4.01    1.35
  -7   3   1    0.96    2.00
   7  -3   1    3.10    1.47
   7   3  -1    2.18    1.34
   7   3  -1    2.33    1.27
   7   3  -1    1.65    1.30
   7   3   1    1.63    1.33
  -7   3  -1    0.33    2.04
  -7  -3   1    4.44    1.76
   7  -3  -1    1.66    1.19
  -7   3  -1    1.65    1.89
  -7  -3   1   -3.58    2.99
   7  -3  -1    3.29    1.48
  -7  -3   1    3.34    2.06
  -7   3  -1    7.12    1.92
   7  -3  -1    1.63    1.21
   7  -3  -1    1.17    1.43
   7   3   1    5.76    1.54
   7   3   1    1.42    1.27
   7   3   1    2.99    1.19
   0   4   1    5.42    0.96
   0   4  -1    6.33    0.50
   0  -4   1    6.39    0.58
   0  -4  -1    8.45    1.22
   0  -4  -1    5.86    0.46
   0  -4  -1    5.93    1.00
   0   4  -1    6.70    0.62
   0   4   1    6.01    0.96
   0   4   1    6.30    0.47
   0   4  -1    5.54    0.60
   0   4   1    5.52    0.43
   0   4  -1    6.93    0.65
   0  -4   1    5.62    0.44
   0  -4   1    6.53    0.65
   0  -4   1    6.95    0.62
   0   4  -1    6.60    0.46
   0  -4  -1    7.01    0.63
   0   4   1    7.82    1.22
   0  -4  -1    9.63    1.30
  -2  -4  -1    4.48    0.66
  -2   4   1    7.89    1.95
   2  -4   1    4.40    0.73
   2  -4   1    5.80    2.06
   2  -4   1    4.65    0.83
  -2  -4  -1    3.54    1.15
   2   4  -1    4.22    2.12
   2   4  -1    2.80    2.32
  -2  -4  -1    5.76    1.87
  -2  -4  -1    5.01    0.92
  -2   4   1    4.35    1.79
   2   4  -1    5.30    0.78
  -2   4   1    4.70    0.67
  -2   4   1    4.11    0.59
  -2   4   1    4.04    1.74
  -2   4   1    6.05    0.77
   2  -4   1    2.47    1.65
   2  -4   1    4.34    0.79
   2   4  -1    5.31    2.12
  -2  -4  -1    5.26    1.71
  -2  -4  -1    4.57    0.55
  -2   4   1    5.46    0.69
  -2  -4  -1    9.28    2.12
  -2  -4  -1    4.39    1.70
   2  -4   1    6.18    1.02
  -2  -4  -1    3.63    0.97
   2   4  -1    4.39    0.72
   2  -4   1    5.06    0.76
   2  -4   1    4.81    1.73
   2   4  -1    4.10    0.50
  -2  -4   1    8.59    2.55
  -2  -4   1    4.55    2.22
   2  -4  -1    5.42    1.80
   2   4   1    4.33    1.86
   2  -4  -1    4.59    1.50
   2   4   1    5.12    0.76
   2   4   1    5.89    2.03
  -2   4  -1    6.25    2.02
  -2  -4   1    5.65    0.89
   2   4   1    6.26    0.96
   2  -4  -1    5.82    0.68
  -2   4  -1    5.08    1.99
   2  -4  -1    5.73    0.92
  -2   4  -1    5.41    0.95
  -2   4  -1    4.63    0.73
   2  -4  -1    4.62    0.69
  -2  -4   1    4.42    0.52
  -2   4  -1    5.12    0.72
   2   4   1    5.36    0.71
   2   4   1    4.72    0.66
  -2   4  -1    5.71    0.93
  -2   4  -1   -0.29    1.72
   2   4   1    5.05    0.66
  -2  -4   1    5.29    0.82
  -2   4  -1    3.54    0.67
   2  -4  -1    6.66    1.74
  -2  -4   1    5.08    0.73
  -2  -4   1    5.90    2.41
  -4  -4  -1   -0.19    4.82
   4   4  -1    1.19    4.09
  -4   4   1    3.82    1.24
   4  -4   1    3.70    1.00
  -4   4   1    2.25    0.82
  -4   4   1    1.80    0.52
   4   4  -1    4.72    4.06
   4   4  -1    2.44    0.69
  -4   4   1    4.28    5.07
   4  -4   1    1.61    0.54
   4  -4   1    2.60    0.73
   4  -4   1   12.84    4.06
  -4  -4  -1    4.15    4.80
   4  -4   1    3.81    4.24
   4   4  -1    1.48    0.68
  -4  -4  -1    1.94    0.61
  -4   4   1    2.49    4.51
  -4   4   1    2.98    0.88
   4   4  -1    2.72    0.78
  -4   4   1    7.01    5.58
  -4   4   1    1.79    1.03
  -4  -4  -1    2.98    1.13
   4  -4   1    3.29    3.93
   4  -4   1    2.26    0.68
  -4  -4  -1    1.91    1.35
  -4  -4  -1    2.75    1.23
   4   4  -1    2.21    0.65
  -4  -4  -1    3.88    1.72
   4   4  -1    2.38    0.68
  -4   4   1    1.26    0.64
   4   4  -1   -1.13    5.37
   4   4   1    7.15    4.24
   4  -4  -1    2.11    0.73
   4   4   1    4.74    4.79
  -4  -4   1   -1.01    5.39
  -4   4  -1    1.99    1.16
  -4  -4   1    2.06    0.96
  -4   4  -1    5.04    1.26
   4  -4  -1    3.52    3.63
   4   4   1    1.62    0.60
   4  -4  -1   -2.42    3.50
  -4  -4   1    2.89    1.38
   4  -4  -1    2.41    0.79
  -4   4  -1    0.68    0.55
   4   4   1    2.55    0.80
  -4   4  -1    2.10    0.94
   4  -4  -1    2.31    0.69
   4   4   1   10.17    4.82
   4  -4  -1    7.94    6.14
  -4  -4   1   -1.28    4.91
  -4  -4   1   -0.62    4.28
  -4   4  -1    1.57    0.56
   4  -4  -1    2.80    0.72
  -4  -4   1    1.03    1.05
   4   4   1    2.29    0.82
  -4   4  -1    2.09    4.34
  -4   4  -1    1.13    1.24
  -4   4  -1    0.32    3.74
   4   4   1    3.56    0.92
  -4   4  -1   -1.33    3.90
  -4  -4   1    1.26    0.52
  -4  -4   1    2.14    0.78
   6  -4   1    1.50    1.04
  -6  -4  -1    0.12    1.87
  -6   4   1    0.94    2.23
   6   4  -1    1.18    1.05
   6  -4   1    0.91    0.86
   6  -4   1    1.33    0.94
  -6  -4  -1    0.53    1.35
  -6   4   1    1.22    1.36
   6   4  -1   -0.45    0.92
  -6   4   1   -0.32    1.22
   6   4  -1    1.26    0.93
   6  -4   1    0.60    1.00
   6   4  -1    0.66    0.88
   6   4  -1    1.49    1.03
  -6  -4  -1    0.20    1.98
  -6  -4  -1    1.10    1.36
   6  -4  -1    1.73    1.05
   6  -4  -1   -0.99    1.04
   6  -4  -1   -0.90    0.93
   6   4   1    0.86    0.77
  -6   4  -1    1.79    0.96
   6   4   1    1.29    1.00
   6   4   1    0.21    0.98
  -6   4  -1    1.10    1.92
   6  -4  -1   -0.67    0.80
  -6   4  -1    0.94    1.46
  -6  -4   1   -0.14    1.23
  -6  -4   1   -2.14    1.99
  -6   4  -1    3.05    1.58
   6   4   1    0.73    0.96
  -6  -4   1    1.27    2.32
  -6   4  -1    0.34    0.80
  -6  -4   1   -0.40    1.28
   8  -4   1   -0.60    1.27
  -8  -4  -1    4.90    2.32
  -8   4   1    3.05    2.67
   8   4  -1    0.70    1.56
  -8   4   1    1.00    2.44
   8   4  -1    1.19    1.55
   8  -4   1    1.46    1.35
   8  -4   1    2.84    1.54
  -8  -4  -1    1.24    2.72
  -8   4  -1    0.51    2.06
   8  -4  -1   -0.02    1.41
  -8  -4   1    1.59    2.23
   8  -4  -1   -0.32    1.63
   8   4   1    0.31    1.38
   8   4   1    0.06    1.54
   8   4   1    2.31    1.64
  -8  -4   1    0.68    2.22
   8  -4  -1   -0.56    1.56
  -1   5   1  620.72   34.16
  -1   5   1  635.38   34.17
  -1   5   1  624.50   33.97
   1   5  -1  616.64   33.05
   1  -5   1  535.94   34.02
   1  -5   1  603.64   33.73
  -1   5   1  615.13   33.18
  -1  -5  -1  598.33   34.10
   1   5  -1  581.80   33.22
  -1  -5  -1  615.32   33.64
   1   5  -1  591.53   33.22
   1   5  -1  584.85   34.30
  -1  -5  -1  616.58   33.93
   1  -5   1  599.02   33.61
   1  -5   1  604.39   33.24
  -1   5   1  519.11   33.12
  -1  -5  -1  560.05   33.19
  -1  -5  -1  616.00   34.10
  -1  -5  -1  557.85   33.49
  -1   5  -1  618.95   33.31
   1   5   1  591.90   33.16
  -1   5  -1  530.89   33.73
  -1  -5   1  612.36   33.34
   1  -5  -1  653.67   34.28
   1   5   1  589.42   33.12
   1   5   1  606.79   34.02
  -1  -5   1  602.63   33.06
   1   5   1  613.15   33.88
   1   5   1  590.72   33.11
  -1  -5   1  582.35   33.22
  -1  -5   1  585.85   34.15
   1  -5  -1  597.64   33.91
   1   5   1  590.47   33.10
   1   5   1  622.25   34.24
  -1  -5   1  603.97   33.19
  -1   5  -1  530.42   33.87
  -1   5  -1  607.62   33.25
   1  -5  -1  558.24   33.13
  -1   5  -1  572.11   33.31
   1  -5  -1  603.71   34.07
  -1  -5   1  528.02   34.48
  -1   5  -1  599.72   33.22
  -1   5  -1  602.51   33.73
   1  -5  -1  583.84   33.19
  -1  -5   1  588.34   34.00
  -1   5  -1  573.73   33.07
  -3   5   1  277.93   19.82
   3  -5   1  316.04   17.37
  -3   5   1  295.32   17.24
  -3   5   1  299.13   17.64
   3   5  -1  325.33   21.44
   3  -5   1  319.43   19.48
  -3  -5  -1  259.03   19.56
   3   5  -1  281.83   17.12
  -3  -5  -1  295.83   17.65
   3   5  -1  284.15   17.08
   3  -5   1  329.95   17.44
   3   5  -1  302.39   20.19
   3   5  -1  262.61   17.34
  -3   5   1  322.93   20.37
   3  -5   1  300.10   17.38
  -3   5   1  307.28   17.44
  -3   5   1  291.73   17.50
  -3  -5  -1  291.19   17.11
   3  -5   1  298.75   17.55
  -3   5   1  303.90   17.36
  -3  -5  -1  276.25   18.49
  -3  -5  -1  260.80   19.21
   3   5  -1  319.90   17.49
   3  -5   1  293.72   19.75
  -3   5   1  282.11   17.01
  -3  -5  -1  299.65   18.02
   3   5  -1  329.64   19.93
  -3   5   1  315.44   19.91
  -3  -5  -1  291.37   18.05
   3  -5   1  302.74   17.69
   3   5  -1  297.56   17.35
   3  -5   1  342.26   20.53
  -3  -5   1  360.45   20.77
   3  -5  -1  273.61   19.23
  -3   5  -1  296.52   17.29
  -3   5  -1  304.40   18.03
   3  -5  -1  307.50   17.51
   3   5   1  294.38   17.28
  -3   5  -1  312.58   17.53
  -3  -5   1  297.09   17.89
   3   5   1  308.88   17.44
  -3  -5   1  310.44   17.66
   3  -5  -1  284.76   17.57
   3  -5  -1  301.16   17.31
  -3   5  -1  308.32   17.39
   3   5   1  295.76   17.29
  -3   5  -1  303.76   17.83
  -3  -5   1  317.95   20.70
  -3  -5   1  317.54   17.61
   3  -5  -1  285.72   19.69
   3   5   1  266.97   19.78
  -3  -5   1  313.22   17.27
   3  -5  -1  331.06   21.11
   3   5   1  299.47   17.41
  -3  -5   1  314.73   20.94
  -3   5  -1  298.59   20.80
   5  -5   1  123.33    7.85
  -5  -5  -1  127.46    8.70
   5  -5   1  122.98    8.01
   5  -5   1  119.00    7.68
  -5   5   1  118.33    8.45
   5  -5   1  127.72    7.77
   5   5  -1  123.26    7.54
  -5   5   1  106.16   16.00
   5   5  -1  120.07   13.98
  -5   5   1  122.55    8.03
  -5   5   1  113.06    7.57
   5   5  -1  126.99    7.65
   5   5  -1  131.95   12.77
  -5  -5  -1  124.56    8.21
   5   5  -1  126.26    8.00
  -5   5   1  123.58    7.84
  -5  -5  -1  122.15    8.34
  -5   5   1  122.72    8.46
   5   5  -1  131.63    7.66
   5   5  -1  136.82   16.14
   5   5  -1  125.91    7.90
  -5  -5  -1  116.48    8.92
  -5  -5   1  114.53    8.01
  -5  -5   1  116.13   15.55
   5   5   1  125.81    7.73
  -5   5  -1  115.06    7.55
  -5   5  -1  126.70    8.65
  -5  -5   1   94.50   13.32
   5  -5  -1  126.84    7.61
   5   5   1  128.00    8.00
  -5  -5   1  124.20    8.33
  -5  -5   1  124.29    8.55
  -5   5  -1  122.54    7.95
  -5  -5   1  154.08   15.97
  -5   5  -1  127.64    8.69
  -5  -5   1  122.35    8.98
   5   5   1  118.91    7.93
   5  -5  -1  127.68    7.70
   5  -5  -1  127.32    8.09
  -5   5  -1  117.52    7.62
   5  -5  -1  119.93    8.06
   5   5   1  127.64    7.76
   7   5  -1   42.00    3.68
   7   5  -1   38.92    3.52
   7  -5   1   40.81    3.42
  -7  -5  -1   41.33    5.48
   7   5  -1   46.40    3.39
   7  -5   1   37.16    3.49
   7   5  -1   44.37    3.80
  -7   5   1   40.45    4.54
   7  -5   1   40.99    3.58
  -7   5   1   38.30    4.03
  -7  -5  -1   42.42    4.13
  -7  -5  -1   37.14    4.22
   7  -5   1   41.38    3.74
   7   5   1   37.88    3.43
   7  -5  -1   35.90    3.53
   7  -5  -1   40.88    3.42
   7  -5  -1   47.48    3.95
   7   5   1   35.97    3.62
  -7   5  -1   45.67    4.60
   7   5   1   44.20    3.37
  -7   5  -1   37.70    4.22
  -7  -5   1   36.84    4.51
  -7  -5   1   32.15    4.96
  -7  -5   1   35.86    3.90
   7  -5  -1   46.26    3.57
   7   5   1   43.27    3.69
   0   6   1   27.60    2.31
   0  -6  -1   29.73    2.41
   0   6   1   26.75    1.61
   0   6   1   27.48    1.63
   0   6  -1   26.86    1.65
   0  -6   1   26.71    1.64
   0   6   1   28.42    2.24
   0  -6  -1   27.15    1.63
   0  -6   1   27.08    1.60
   0  -6  -1   28.64    2.36
   0   6  -1   24.09    1.74
   0  -6   1   26.02    1.87
   0  -6  -1   27.36    2.25
   0   6  -1   24.07    1.78
   0  -6   1   26.98    1.62
   0   6   1   27.17    2.38
   0   6  -1   27.97    1.67
   0  -6  -1   27.42    1.81
  -2   6   1   20.20    2.88
   2   6  -1   20.06    1.58
   2  -6   1   17.89    1.63
  -2  -6  -1   29.49    3.49
  -2  -6  -1   26.70    3.48
   2   6  -1   18.45    3.39
   2  -6   1   19.27    1.66
  -2   6   1   20.43    1.59
  -2  -6  -1   18.36    2.34
  -2   6   1   23.43    2.85
   2  -6   1   18.31    1.60
   2  -6   1   18.54    1.60
   2   6  -1   20.00    1.38
   2  -6   1   20.17    3.31
  -2  -6  -1   24.07    3.14
   2   6  -1   25.20    3.68
   2   6  -1   18.78    1.33
  -2  -6  -1   20.70    2.21
   2   6  -1   18.89    1.61
   2   6  -1   19.92    1.50
   2   6  -1   20.38    1.35
   2  -6   1   20.06    1.56
  -2   6   1   20.67    1.48
   2   6  -1   17.19    3.60
  -2   6   1   21.45    3.36
  -2  -6  -1   27.05    3.54
  -2  -6  -1   21.61    1.63
   2  -6   1   24.07    3.53
   2  -6   1   26.20    3.37
  -2   6   1   21.03    1.49
  -2  -6  -1   20.22    1.77
  -2   6   1   19.09    1.49
  -2   6   1   18.94    1.33
   2  -6  -1   20.82    1.54
   2  -6  -1   22.10    3.16
   2   6   1   20.31    1.45
  -2   6  -1   22.00    1.78
   2   6   1   20.04    1.49
   2   6   1   25.28    3.64
   2  -6  -1   19.57    1.65
  -2  -6   1   23.08    4.15
  -2   6  -1   21.38    1.59
  -2   6  -1   28.50    3.72
  -2  -6   1   20.93    3.61
   2   6   1   20.73    1.51
   2   6   1   19.67    1.41
   2  -6  -1   22.27    1.50
  -2   6  -1   25.47    3.65
   2   6   1   18.73    2.93
  -2   6  -1   20.25    1.61
   2   6   1   19.12    1.71
   2  -6  -1   24.26    3.26
  -2   6  -1   20.11    1.66
  -2  -6   1   20.94    3.74
  -2  -6   1   19.95    1.57
  -2  -6   1   20.41    1.38
  -2  -6   1   21.60    1.73
  -2  -6   1   20.98    1.78
  -2   6  -1   25.27    3.62
   2  -6  -1   29.75    3.91
  -2   6  -1   21.12    1.64
  -2   6  -1   20.12    1.53
   2   6   1   21.40    1.48
   4  -6   1   12.57    1.38
  -4  -6  -1    8.53    5.29
  -4   6   1   10.34    1.12
  -4  -6  -1    9.17    1.17
   4  -6   1   22.75    5.15
   4   6  -1    9.85    4.52
  -4   6   1    6.45    5.09
  -4   6   1   17.26    1.96
  -4  -6  -1   17.43    2.90
   4  -6   1   12.81    1.39
   4  -6   1   13.32    1.86
  -4   6   1    3.08    5.19
  -4   6   1   11.63    1.83
  -4   6   1   12.06    1.42
   4   6  -1   13.25    5.57
  -4  -6  -1   12.86    2.15
   4  -6   1   12.53    1.63
   4   6  -1   11.78    1.39
   4   6  -1   12.68    1.73
  -4   6   1   13.56    5.76
   4  -6   1   22.29    4.74
  -4  -6  -1   11.12    5.26
   4   6  -1    8.11    4.20
  -4   6   1   13.11    1.99
  -4   6   1   14.28    1.92
  -4  -6  -1   12.36    1.90
   4   6  -1   11.70    1.25
   4   6  -1   10.19    1.33
  -4  -6  -1   12.70    2.28
   4  -6   1   14.62    4.84
   4   6  -1   11.80    1.55
  -4   6  -1   10.12    4.42
  -4   6  -1   18.70    5.17
  -4  -6   1   15.12    2.04
  -4  -6   1   15.78    6.07
  -4  -6   1   26.72    6.56
   4  -6  -1   10.19    1.46
  -4  -6   1   13.37    2.22
   4   6   1   10.87    1.43
  -4   6  -1   14.74    5.03
  -4   6  -1   14.51    2.37
  -4  -6   1    6.89    4.25
   4  -6  -1   22.98    6.85
  -4  -6   1   13.15    1.78
   4   6   1   11.28    1.30
   4   6   1   12.57    1.61
   4  -6  -1   12.34    1.33
   4  -6  -1   10.69    4.20
  -4   6  -1   10.10    1.26
   4  -6  -1    9.36    1.53
  -4   6  -1   14.40    2.27
   4  -6  -1   13.84    1.93
   4  -6  -1    5.59    3.86
   4   6   1   12.43    5.14
  -4  -6   1   13.92    2.11
  -4   6  -1   13.64    1.75
   4   6   1   12.08    1.48
  -4   6  -1   12.23    1.29
  -6   6   1    8.75    1.79
   6   6  -1    5.86    1.36
   6   6  -1    5.89    1.45
   6   6  -1    4.52    1.18
   6  -6   1    3.74    1.04
  -6  -6  -1    5.06    1.88
   6  -6   1    7.89    1.68
  -6  -6  -1    4.49    2.33
  -6   6   1    6.58    1.23
  -6  -6  -1    3.64    1.51
   6  -6   1    5.07    1.35
  -6  -6  -1    5.97    2.35
   6   6  -1    6.25    1.23
  -6   6   1    6.87    1.80
  -6   6   1    5.98    2.44
   6   6  -1    8.03    1.36
   6  -6   1    7.54    1.49
   6  -6  -1    6.44    1.32
  -6  -6   1    6.50    1.68
   6   6   1    5.13    1.24
   6   6   1    5.33    1.34
  -6   6  -1    5.97    1.19
  -6  -6   1    4.04    2.22
  -6   6  -1    5.56    1.90
  -6   6  -1    6.90    1.83
  -6  -6   1    2.14    1.43
   6  -6  -1    5.88    1.29
   6  -6  -1    7.54    1.56
   6  -6  -1    8.98    1.83
   6   6   1    6.31    1.27
  -6  -6   1    2.24    2.29
  -6   6  -1    5.24    1.13
  -6   6  -1    7.45    2.29
   6   6   1    6.80    1.57
   8   6  -1    0.31    1.93
  -8   6   1    2.19    2.45
   8  -6   1    3.83    1.48
   8  -6   1    1.84    1.60
  -8  -6  -1    2.76    2.67
   8  -6   1    2.91    1.65
  -8   6   1    3.55    2.86
   8   6  -1    2.86    1.70
  -8  -6   1    3.55    2.63
   8  -6  -1    2.56    1.52
   8   6   1    2.84    1.60
   8   6   1    1.48    1.76
   8   6   1    2.68    1.47
  -8   6  -1    2.69    2.35
   8  -6  -1    2.02    1.68
  -8  -6   1    4.83    2.23
   8  -6  -1    4.79    1.84
   1  -7   1   57.88    3.74
   1  -7   1   67.48    4.22
  -1  -7  -1   66.61    4.28
  -1  -7  -1   61.40    3.64
  -1   7   1   62.02    3.71
  -1   7   1   61.48    3.73
   1  -7   1   63.30    3.79
  -1  -7  -1   69.34    4.60
  -1  -7  -1   66.13    4.72
   1   7  -1   60.03    5.01
   1   7  -1   59.56    4.79
  -1   7   1   62.56    3.67
   1   7  -1   63.64    3.59
  -1  -7  -1   63.66    4.16
   1   7  -1   63.26    3.80
   1   7  -1   64.68    3.79
   1  -7   1   66.06    4.42
  -1   7   1   63.01    4.68
  -1  -7  -1   63.47    4.70
  -1   7   1   66.51    4.71
   1   7  -1   57.33    4.93
   1   7  -1   63.09    3.67
   1  -7   1   69.24    4.37
  -1   7   1   57.68    3.77
   1  -7   1   62.54    3.80
  -1  -7  -1   60.63    3.78
  -1  -7  -1   60.18    3.69
  -1   7   1   65.98    4.53
   1   7  -1   61.57    3.69
  -1   7  -1   61.00    3.68
  -1  -7   1   57.54    4.68
  -1   7  -1   63.66    3.85
  -1  -7   1   64.20    3.93
  -1   7  -1   65.45    4.36
  -1   7  -1   59.98    3.75
   1   7   1   60.17    4.57
  -1   7  -1   59.33    4.17
   1   7   1   62.33    4.47
  -1   7  -1   64.30    3.92
   1  -7  -1   65.86    4.64
   1  -7  -1   64.26    4.77
  -1   7  -1   59.31    4.25
  -1  -7   1   63.09    3.59
  -1  -7   1   63.52    3.75
   1   7   1   66.18    3.65
   1   7   1   63.41    3.68
  -1  -7   1   57.24    4.82
   1  -7  -1   61.69    4.44
  -1   7  -1   63.29    3.68
  -1  -7   1   59.85    5.23
   1   7   1   63.73    3.69
  -1  -7   1   62.49    3.88
   1   7   1   62.06    3.68
  -1  -7   1   64.08    3.74
   1  -7  -1   62.75    3.76
   1   7   1   65.50    4.82
  -3   7   1   27.94    2.43
  -3   7   1   31.25    5.13
  -3   7   1   26.14    2.16
  -3  -7  -1   25.68    1.87
   3   7  -1   38.39    5.56
   3  -7   1   28.66    2.16
   3   7  -1   27.43    2.18
  -3  -7  -1   27.40    2.42
   3  -7   1   29.83    2.50
   3  -7   1   29.01    2.23
  -3   7   1   30.31    4.94
  -3  -7  -1   37.59    5.53
   3  -7   1   29.22    4.63
  -3  -7  -1   33.50    5.00
  -3   7   1   25.14    1.87
   3  -7   1   34.53    4.91
   3   7  -1   28.98    2.25
  -3   7   1   29.30    2.23
   3   7  -1   27.10    4.95
  -3  -7  -1   23.34    4.39
   3   7  -1   27.19    1.92
  -3   7   1   26.40    2.11
   3  -7   1   25.99    2.38
  -3  -7  -1   32.78    3.07
   3  -7   1   41.82    6.00
  -3  -7  -1   31.04    5.33
   3   7  -1   26.61    2.17
  -3  -7  -1   23.69    2.73
   3   7  -1   30.17    5.94
   3   7  -1   26.29    1.95
  -3   7   1   29.06    2.33
  -3  -7  -1   30.08    3.39
   3  -7   1   29.03    2.27
  -3   7   1   41.06    5.30
  -3  -7   1   31.52    5.83
  -3   7  -1   27.63    2.13
  -3  -7   1   31.48    2.43
   3  -7  -1   26.61    4.44
   3  -7  -1   27.40    2.16
  -3   7  -1   27.94    2.30
   3   7   1   25.06    4.48
   3   7   1   30.59    2.22
   3  -7  -1   31.66    5.29
   3  -7  -1   27.95    2.42
  -3  -7   1   29.68    5.77
  -3   7  -1   28.36    2.22
  -3   7  -1   39.74    5.29
  -3  -7   1   26.08    2.37
   3   7   1   24.88    4.86
   3  -7  -1   31.92    2.31
  -3   7  -1   29.51    2.52
   3   7   1   25.91    2.05
  -3  -7   1   35.34    6.02
  -3  -7   1   28.68    2.68
   3   7   1   26.44    2.08
  -3  -7   1   29.71    2.09
  -3   7  -1   26.84    2.59
   3  -7  -1   31.17    4.86
  -3   7  -1   35.48    5.10
   3   7   1   27.02    2.18
  -5  -7  -1   10.91    1.96
  -5   7   1   10.43    2.07
   5   7  -1   12.76    1.50
  -5   7   1    6.99    1.57
  -5   7   1   12.31    1.57
   5  -7   1    8.56    1.34
   5   7  -1   10.51    1.44
   5   7  -1    8.89    1.46
  -5  -7  -1   10.90    2.42
  -5  -7  -1   12.53    2.92
   5   7  -1   10.95    1.39
  -5   7   1    7.44    1.07
   5  -7   1   11.11    1.87
   5  -7   1   10.84    1.63
  -5  -7  -1   11.83    2.28
  -5  -7  -1   10.60   13.74
   5  -7   1    9.35    1.52
  -5   7   1   10.83    2.00
   5   7  -1    9.97    1.72
  -5  -7   1    7.46    2.28
  -5   7  -1    9.73    2.14
   5  -7  -1    9.98    1.44
   5  -7  -1   11.19    1.86
   5   7   1   10.32    1.54
  -5   7  -1    9.42    1.40
  -5  -7   1   12.77    1.92
   5  -7  -1   11.08    1.86
  -5   7  -1    6.99    1.48
  -5  -7   1   10.52    2.04
   5   7   1   11.15    1.53
  -5   7  -1    8.48    1.96
  -5  -7   1    9.73    2.23
   5   7   1    9.79    1.56
   5  -7  -1    9.85    1.52
   5   7   1   10.60    1.65
  -5   7  -1   10.13    1.42
   7   7  -1    2.20    1.51
   7   7  -1    3.61    1.46
   7  -7   1    2.95    1.46
  -7   7   1    1.94    2.01
   7  -7   1    2.03    1.23
  -7  -7  -1    4.71    2.07
   7  -7   1    1.63    1.09
   7  -7   1    3.25    1.53
   7   7  -1    1.04    1.30
   7   7  -1    3.47    1.49
  -7  -7  -1    0.37    2.71
  -7  -7  -1    4.30    1.98
  -7   7   1    2.99    2.00
  -7   7  -1    3.55    1.89
  -7  -7   1    2.77    1.71
   7   7   1    3.37    1.20
  -7  -7   1    0.22    3.11
   7  -7  -1    2.07    1.16
   7   7   1    5.20    1.69
   7  -7  -1    3.37    1.58
   7   7   1    2.67    1.27
   7   7   1    3.51    1.38
  -7  -7   1    0.42    2.16
  -7   7  -1    3.67    1.91
   7  -7  -1    4.36    1.53
   7  -7  -1    1.42    1.24
   0  -8  -1  253.67   14.93
   0  -8  -1  240.71   13.97
   0  -8  -1  247.54   14.16
   0  -8   1  248.57   13.92
   0  -8  -1  249.41   14.70
   0  -8   1  249.73   13.92
   0   8   1  250.80   13.95
   0  -8   1  246.26   13.90
   0  -8  -1  248.16   14.84
   0   8   1  252.68   13.95
   0  -8   1  251.49   13.89
   0  -8  -1  239.31   14.24
   0   8  -1  245.77   13.96
   0   8   1  251.03   13.96
   0  -8  -1  243.02   14.03
   0   8   1  254.77   14.69
   0   8   1  258.31   14.85
   0   8  -1  246.10   14.03
   0   8  -1  251.17   14.01
   0   8   1  239.88   14.86
   0  -8  -1  240.94   13.94
  -2  -8  -1  161.41   11.10
   2  -8   1  166.71   10.89
   2   8  -1  158.52    9.28
   2   8  -1  162.19    9.32
  -2   8   1  168.73    9.65
   2  -8   1  157.11    9.56
  -2  -8  -1  170.32    9.84
  -2  -8  -1  154.70   10.30
   2   8  -1  150.56   12.08
   2  -8   1  163.04   11.15
  -2   8   1  167.51    9.44
   2  -8   1  164.64    9.71
  -2  -8  -1  172.43   10.93
   2  -8   1  158.60    9.61
   2   8  -1  161.98    9.57
  -2   8   1  164.41    9.52
   2   8  -1  171.61   11.88
   2   8  -1  158.46    9.58
  -2  -8  -1  167.89   11.16
   2   8  -1  155.29    9.46
   2   8  -1  164.56    9.64
  -2   8   1  163.38    9.52
  -2   8   1  162.82   11.08
   2   8  -1  162.69    9.29
   2  -8   1  151.04   11.23
  -2  -8  -1  157.20   10.82
  -2   8   1  168.99    9.36
  -2   8   1  169.47   10.88
  -2  -8  -1  168.01    9.65
   2   8  -1  156.68   11.35
  -2   8   1  174.26   11.14
  -2  -8  -1  157.01   10.65
   2  -8   1  157.26    9.68
   2   8   1  157.19   11.27
   2  -8  -1  166.32   11.15
   2  -8  -1  169.25    9.74
  -2   8  -1  174.91    9.82
   2   8   1  161.13    9.76
   2   8   1  167.93   11.32
  -2   8  -1  163.01    9.63
   2   8   1  163.44    9.44
  -2   8  -1  172.75   10.95
   2   8   1  163.02    9.44
  -2   8  -1  155.81    9.74
   2   8   1  170.51    9.38
  -2   8  -1  159.62    9.61
  -2  -8   1  158.97    9.93
  -2  -8   1  166.10    9.37
   2   8   1  163.69    9.48
  -2  -8   1  177.18   12.44
  -2  -8   1  152.74   11.57
  -2  -8   1  169.06    9.84
   2  -8  -1  165.97    9.49
   2   8   1  158.32    9.52
   2  -8  -1  173.73    9.57
  -2  -8   1  160.90   11.97
  -2   8  -1  173.02   11.58
  -2   8  -1  162.36    9.54
  -2   8  -1  163.22    9.50
   2  -8  -1  162.94   11.01
   2  -8  -1  155.06   10.72
  -2  -8   1  169.04    9.63
  -2   8  -1  175.68   11.25
  -4   8   1   70.21    5.00
  -4   8   1   69.59    4.86
  -4   8   1   66.02    4.63
   4   8  -1   65.97    4.73
   4   8  -1   83.11    9.77
  -4   8   1   65.87    4.33
   4   8  -1   73.82    4.77
  -4  -8  -1   60.54    8.76
  -4   8   1   82.36   10.10
   4   8  -1   62.11    9.10
   4  -8   1   72.47    4.65
  -4  -8  -1   71.26    5.45
   4  -8   1   67.23    4.67
  -4  -8  -1   82.22    6.34
   4   8  -1   80.75    8.70
   4  -8   1   73.42    7.77
   4   8  -1   68.84    4.48
   4  -8   1   71.13    9.15
   4  -8   1   76.47    8.50
  -4  -8  -1   79.70    9.51
  -4   8   1   66.64    4.78
  -4  -8  -1   71.72    5.45
  -4  -8  -1   70.10    5.15
  -4  -8  -1   59.67    8.71
  -4   8   1   69.00    5.11
  -4   8   1   82.82   10.36
   4  -8   1   68.96    4.72
   4   8  -1   68.56    4.59
  -4   8   1   64.16    8.99
   4  -8   1   69.07    4.95
  -4  -8  -1   58.48    8.65
   4   8  -1   65.66    4.38
  -4   8  -1   69.84    4.57
   4   8   1   64.13    4.58
   4  -8  -1   62.19    4.92
   4  -8  -1   66.48    8.87
  -4   8  -1   65.27    5.06
   4  -8  -1   70.79    4.96
   4  -8  -1   70.28    4.72
  -4  -8   1   74.80    4.97
   4  -8  -1   85.62   11.48
   4   8   1   64.19    9.25
  -4   8  -1   71.74    5.45
  -4  -8   1   79.73    5.33
   4   8   1   65.33    4.73
  -4  -8   1   70.96    5.69
   4   8   1   72.29    4.86
  -4   8  -1   66.25    4.74
  -4   8  -1   70.08    4.61
  -4  -8   1   80.02    9.68
   4   8   1   60.10    8.77
  -4  -8   1   94.47   11.57
   4  -8  -1   71.34    4.69
   4  -8  -1   57.05    8.06
  -4  -8   1   68.36    5.12
  -4  -8   1   90.79   11.08
   4   8   1   70.31    4.65
   6   8  -1   29.04    2.62
  -6  -8  -1   31.35    3.29
   6   8  -1   28.48    2.84
  -6   8   1   27.93    3.01
   6   8  -1   25.67    2.56
  -6  -8  -1   25.80    4.04
  -6  -8  -1   25.71    3.38
  -6   8   1   32.21    3.50
   6  -8   1   28.39    2.60
   6   8  -1   28.30    2.53
   6   8  -1   29.17    2.86
  -6   8   1   23.20    2.46
   6  -8   1   28.25    2.90
  -6  -8  -1   30.12    3.81
   6  -8   1   30.05    2.74
   6  -8   1   25.88    2.61
  -6  -8   1   31.93    3.14
   6   8   1   27.24    2.81
  -6   8  -1   28.59    2.54
  -6   8  -1   26.33    2.41
  -6  -8   1   27.70    3.66
  -6   8  -1   25.92    3.38
   6   8   1   24.75    2.51
   6  -8  -1   30.40    2.68
   6   8   1   29.18    2.94
  -6  -8   1   25.48    3.52
   6   8   1   25.48    2.90
   6  -8  -1   30.13    3.05
  -6   8  -1   27.92    3.26
   6  -8  -1   28.65    2.58
   6   8   1   29.22    2.57
  -6  -8   1   31.94    4.28
   6  -8  -1   28.07    2.81
  -6   8  -1   24.72    3.38
   8   8  -1   10.51    2.19
   8  -8   1   11.12    2.17
   8  -8   1   12.04    2.21
   8  -8   1   10.63    1.99
  -8   8   1    7.91    2.68
  -8  -8  -1   12.21    2.76
   8   8  -1   12.83    2.51
  -8  -8   1    9.57    3.12
   8  -8  -1    7.95    1.91
  -8  -8   1    6.00    2.54
   8   8   1    8.65    2.24
   8  -8  -1   13.90    2.41
  -8   8  -1   12.69    2.76
   8  -8  -1    8.92    2.12
   8   8   1    3.65    1.70
   8   8   1   12.61    2.32
   1   9  -1    6.80    0.61
  -1   9   1    7.15    0.63
   1   9  -1    7.64    0.54
  -1  -9  -1    8.02    1.29
   1   9  -1    7.82    2.06
  -1  -9  -1   10.28    1.88
   1   9  -1    7.33    0.73
  -1   9   1    7.72    0.61
  -1   9   1    6.55    1.37
   1   9  -1    8.44    1.56
   1  -9   1    7.12    0.71
  -1   9   1   10.20    1.63
  -1  -9  -1    7.05    0.63
   1   9  -1    7.10    0.48
   1  -9   1    8.13    1.07
  -1  -9  -1    7.92    0.71
  -1  -9  -1   11.80    1.86
   1   9  -1    7.14    0.68
   1  -9   1    7.64    1.28
  -1   9   1    9.70    1.79
   1   9  -1    6.63    0.59
  -1  -9  -1    7.46    0.56
  -1  -9  -1    5.38    1.38
  -1  -9  -1    8.40    1.24
  -1   9   1    6.96    0.64
  -1   9   1    7.29    0.70
   1  -9   1    9.41    1.42
   1   9  -1    8.84    1.47
  -1  -9   1    6.89    0.66
  -1   9  -1    6.82    0.61
  -1   9  -1    7.79    0.97
  -1   9  -1    8.09    0.74
   1  -9  -1    7.63    0.86
   1   9   1    6.22    0.60
  -1  -9   1    6.96    0.48
  -1   9  -1    6.85    0.83
   1   9   1    6.80    0.59
   1   9   1    6.06    0.63
  -1  -9   1    6.02    0.75
  -1  -9   1    7.64    0.66
   1   9   1    5.43    1.36
   1  -9  -1    6.69    1.40
   1  -9  -1    6.64    0.66
  -1  -9   1    6.68    1.74
   1   9   1    9.79    1.77
  -1  -9   1    8.41    0.85
  -1   9  -1    7.38    0.64
  -1  -9   1    7.29    1.77
   1  -9  -1   14.10    2.13
   1  -9  -1    8.07    1.48
  -1   9  -1    7.03    0.95
  -1  -9   1    7.97    1.74
  -1   9  -1    7.04    0.69
   1   9   1   10.58    1.71
   1   9   1    7.45    0.60
  -1   9  -1    9.89    1.50
   1   9   1    7.44    0.68
   1   9   1    6.67    0.54
  -3  -9  -1    6.76    3.38
   3   9  -1    4.15    4.34
  -3  -9  -1    5.03    2.96
  -3   9   1    3.43    0.89
  -3   9   1    3.62    0.96
   3   9  -1    6.77    3.18
   3   9  -1    5.73    1.00
   3   9  -1    4.23    0.84
  -3  -9  -1    3.28    1.01
  -3   9   1    4.30    0.92
  -3   9   1    3.96    0.83
   3  -9   1    4.28    0.91
  -3  -9  -1    1.89    1.08
  -3   9   1    6.62    3.15
   3  -9   1    3.25    0.93
  -3   9   1    8.10    3.09
   3   9  -1    4.37    0.63
   3   9  -1    8.03    3.25
   3  -9   1    4.57    2.90
  -3   9   1    6.68    1.04
  -3   9   1    4.14    0.59
  -3  -9  -1    4.24    1.82
   3   9  -1    4.35    0.64
  -3  -9  -1    8.76    1.94
   3  -9   1    3.22    1.05
   3  -9   1    4.78    2.70
   3  -9   1    4.16    0.91
   3  -9   1    4.72    0.84
  -3  -9  -1    3.99    2.86
   3   9  -1    5.56    0.85
  -3   9   1    0.78    2.65
  -3  -9  -1    6.16    3.38
   3  -9   1    6.25    2.86
   3   9   1    4.68    0.75
  -3  -9   1    4.05    3.98
   3  -9  -1    5.71    1.01
  -3   9  -1    5.65    1.32
   3  -9  -1    2.84    2.30
  -3   9  -1    3.94    3.00
   3   9   1    6.55    3.25
  -3  -9   1    4.21    1.25
  -3   9  -1    1.19    2.83
  -3   9  -1    6.07    1.18
  -3   9  -1    4.87    0.94
   3   9   1    5.46    0.79
  -3   9  -1    5.72    3.15
   3   9   1    7.12    1.09
  -3   9  -1    2.98    0.96
   3   9   1    1.77    3.36
  -3  -9   1    3.82    1.17
   3  -9  -1    7.86    3.58
   3  -9  -1    5.41    2.56
   3   9   1    4.21    0.74
  -3  -9   1    5.60    1.03
   3   9   1    4.81    0.89
  -3  -9   1    4.41    0.99
   3  -9  -1    4.71    0.88
  -3  -9   1    0.31    3.71
  -3  -9   1    7.12    3.60
  -3   9  -1    6.54    1.04
  -3   9  -1    5.45    1.01
  -3   9  -1    4.24    0.78
   3  -9  -1    6.19    1.26
   5   9  -1    1.54    0.86
  -5  -9  -1    5.76    2.00
   5  -9   1    2.66    1.16
  -5   9   1    1.92    0.77
  -5   9   1    5.26    1.08
   5   9  -1    2.04    0.81
  -5  -9  -1   -1.63    7.73
   5   9  -1    1.85    0.91
  -5   9   1   -1.69    1.52
  -5   9   1    3.88    1.39
   5  -9   1    1.69    0.88
  -5  -9  -1    2.05    1.17
  -5  -9  -1  -12.53   13.96
   5   9  -1    1.59    0.90
  -5  -9  -1   -6.35    7.46
  -5  -9  -1    0.64    1.62
  -5  -9  -1    0.68    1.22
   5  -9   1    1.93    0.68
  -5   9   1    1.93    1.09
   5   9  -1    3.44    1.07
   5  -9   1    3.16    0.82
  -5  -9   1    3.09    1.20
   5  -9  -1    0.50    0.90
  -5   9  -1    3.37    0.84
   5   9   1    1.19    0.81
   5   9   1    2.35    1.05
  -5   9  -1    3.13    1.23
  -5   9  -1    1.59    1.30
  -5  -9   1    0.22    1.53
   5   9   1    7.64   10.25
   5  -9  -1    3.33    1.15
   5  -9  -1    1.17    0.75
  -5   9  -1    2.73    0.79
  -5   9  -1    3.42    1.46
  -5  -9   1    3.55    1.33
  -5   9  -1    2.17    1.52
  -5  -9   1    3.54    1.67
   5   9   1    2.16    0.86
   5   9   1    1.79    0.74
   5  -9  -1    0.95    0.80
   7   9  -1    1.76    1.48
  -7  -9  -1    3.43    1.94
  -7   9   1    2.40    1.93
   7  -9   1    1.98    1.16
   7  -9   1    1.52    1.29
   7  -9   1    0.45    1.07
  -7  -9  -1    1.90    2.81
   7   9  -1   -1.50    1.49
  -7  -9  -1    4.18    1.94
  -7   9   1   -1.37    2.01
   7  -9   1   -0.71    1.37
   7   9  -1   -1.39    1.42
   7   9  -1    1.39    1.42
   7  -9  -1    0.05    1.45
  -7  -9   1   -0.14    1.71
   7   9   1    1.85    1.27
   7  -9  -1    0.32    1.22
  -7   9  -1    2.58    1.80
   7   9   1    2.85    1.25
   7   9   1    3.99    1.65
   7  -9  -1   -0.84    1.53
  -7  -9   1   -0.10    1.89
   7   9   1    0.16    1.28
  -7  -9   1    3.69    3.36
   7  -9  -1    1.21    1.25
  -7   9  -1    0.80    1.83
  -7  -9   1    0.45    3.52
   0 -10  -1    0.34    0.69
   0  10  -1    0.14    0.19
   0 -10  -1    0.61    0.44
   0  10   1    0.21    0.13
   0 -10   1    0.41    0.24
   0  10   1    1.73    0.87
   0  10  -1    0.43    0.18
   0  10   1    0.75    0.85
   0 -10  -1    0.27    0.13
   0  10  -1    0.48    0.17
   0 -10   1    0.50    0.13
   0 -10  -1   -0.45    0.64
   0  10  -1    0.50    0.26
   0  10   1    0.29    0.18
   0 -10  -1    0.26    0.27
   0 -10   1    0.02    0.43
   0 -10  -1   -0.08    0.64
   0  10   1    0.68    0.75
   0  10  -1    0.15    0.22
   0  10   1    0.26    0.13
   0  10   1    0.31    0.16
   0 -10   1    0.45    0.22
   0 -10   1    0.01    0.24
   0  10  -1    0.57    0.23
   0 -10  -1    0.35    0.18
   0  10  -1    0.39    0.56
   0 -10  -1    0.26    0.17
   0 -10   1    0.30    0.44
   2 -10   1   -0.14    0.29
  -2 -10  -1   -1.36    1.44
   2 -10   1   -0.56    1.37
   2  10  -1    0.53    0.37
   2 -10   1    0.16    0.48
   2  10  -1    0.06    0.18
  -2 -10  -1    1.73    1.17
   2 -10   1    0.90    1.55
  -2  10   1    0.67    1.43
   2 -10   1    0.98    0.51
   2  10  -1   -2.66    2.47
   2  10  -1    0.06    0.30
   2  10  -1   -0.23    0.36
   2  10  -1    0.25    0.45
  -2  10   1    0.98    1.49
  -2  10   1    0.31    0.27
  -2  10   1    0.39    0.40
   2 -10   1   -0.05    0.34
  -2 -10  -1   -0.37    1.61
   2  10  -1   -0.22    0.18
  -2  10   1    0.48    0.25
  -2 -10  -1    0.35    0.47
  -2 -10  -1   -0.04    1.33
  -2  10   1    0.28    1.58
   2  10  -1    0.17    0.22
  -2 -10  -1   -0.11    1.42
   2  10  -1   -0.03    1.82
   2  10  -1   -2.15    1.74
   2 -10   1   -1.19    1.63
  -2  10   1    0.20    0.28
  -2 -10  -1    0.36    0.36
  -2  10   1    0.75    0.37
  -2 -10  -1    1.06    1.26
  -2  10   1    0.55    0.49
  -2 -10   1    1.07    2.36
  -2  10  -1    0.83    1.37
  -2 -10   1   -0.52    2.36
  -2  10  -1    0.15    0.27
  -2 -10   1    0.14    0.35
   2 -10  -1   -0.15    1.57
  -2 -10   1    0.60    0.27
   2 -10  -1    1.96    1.36
  -2  10  -1    0.13    1.29
   2 -10  -1    0.47    0.47
  -2  10  -1   -2.26    1.77
   2  10   1    2.71    1.83
  -2  10  -1    0.56    0.44
   2  10   1    0.33    0.59
  -2 -10   1    0.21    0.54
   2  10   1    0.01    0.24
  -2  10  -1    0.36    0.47
   2  10   1    0.10    0.21
   2  10   1    0.07    0.18
   2  10   1    0.61    1.76
  -2  10  -1    0.17    0.31
  -2 -10   1    0.34    0.50
   2  10   1    0.31    0.26
   2  10   1    0.54    0.29
   2  10   1    0.03    0.23
   2 -10  -1    0.20    1.35
   2 -10  -1    0.67    0.28
  -2  10  -1    0.42    0.42
  -2  10  -1    0.67    0.35
  -2 -10   1   -2.05    2.26
  -4 -10  -1    1.49    0.94
   4 -10   1   -0.05    0.42
   4  10  -1   -0.66    0.50
   4  10  -1   -0.42    0.57
   4  10  -1    0.24    0.67
   4  10  -1   -0.40    0.70
  -4 -10  -1   -0.22    1.14
   4  10  -1    0.33    4.52
  -4 -10  -1    6.98    5.70
  -4  10   1    0.23    0.73
  -4  10   1    7.08    5.21
  -4  10   1   -0.93    0.48
   4 -10   1   -4.10    3.83
  -4 -10  -1    1.90    1.57
   4 -10   1   -0.17    0.59
  -4  10   1    0.90    1.03
   4  10  -1   -2.18    5.27
   4 -10   1   -0.14    0.78
   4 -10   1   -0.86    4.44
   4 -10   1    3.14    3.81
   4 -10   1    0.89    0.73
  -4 -10  -1    1.79    1.55
  -4  10   1    1.06    0.75
   4  10  -1    5.14    4.59
  -4  10   1   -1.30    5.57
  -4  10   1    0.08    0.71
  -4  10   1    3.27    5.49
  -4 -10  -1    4.16    5.73
  -4 -10  -1    0.14    5.57
   4  10  -1    0.26    0.53
  -4 -10  -1    8.02    5.49
  -4  10   1   -0.77    0.75
   4  10   1    0.39    0.52
  -4  10  -1    0.63    1.08
  -4 -10   1   -7.20    6.28
  -4  10  -1    0.18    4.29
   4  10   1   -0.33    0.60
  -4 -10   1    1.01    1.09
  -4  10  -1    0.39    0.89
  -4  10  -1    1.27    0.96
   4 -10  -1   -0.08    0.69
  -4 -10   1   -6.66    5.41
  -4 -10   1   -4.03    6.23
  -4  10  -1   -1.25    1.09
   4 -10  -1   -1.99    3.81
   4  10   1   -0.19    0.58
  -4 -10   1   -0.68    0.95
  -4 -10   1    2.19    1.17
   4 -10  -1   -0.79    0.73
  -4  10  -1    0.22    0.53
  -4  10  -1   -7.22    4.59
   4 -10  -1    0.60    0.70
   4 -10  -1   -0.44    0.82
   4 -10  -1   -1.39    4.02
   4  10   1   -0.01    0.70
   4  10   1   -0.33    0.62
  -4  10  -1    0.61    0.57
   4  10   1    0.81    5.22
   4  10   1  -12.44    5.63
   4 -10  -1    5.04    5.99
  -4 -10   1   -0.48    0.67
  -4  10  -1   -1.01    4.60
  -6 -10  -1   -2.04    2.02
   6  10  -1   -0.21    1.09
  -6 -10  -1   -0.68    1.51
  -6  10   1   -0.75    0.96
   6 -10   1   -0.09    0.79
  -6 -10  -1    0.53    1.58
   6  10  -1   -0.67    1.11
   6 -10   1   -0.33    0.80
   6  10  -1    0.18    1.21
  -6 -10  -1   -2.28    2.23
  -6  10   1    0.08    1.34
   6 -10   1    0.90    1.10
   6  10  -1   -2.22    1.01
   6 -10   1   -0.27    1.04
   6  10  -1   -0.66    1.05
  -6  10   1   -0.90    1.42
  -6 -10   1    2.14    1.30
  -6  10  -1   -2.27    1.31
   6  10   1   -2.53    1.57
  -6  10  -1    0.68    0.92
   6  10   1    0.60    1.01
   6 -10  -1    1.23    1.09
  -6  10  -1   -0.86    0.83
  -6 -10   1    0.03    2.13
   6  10   1   -1.27    0.97
   6  10   1   -0.43    0.82
  -6 -10   1    2.76    2.18
   6 -10  -1    0.47    0.97
   6 -10  -1    0.98    1.18
   6 -10  -1   -0.85    0.93
   6  10   1    0.28    1.25
  -6 -10   1   -0.59    1.43
  -6  10  -1   -0.56    1.42
   8 -10   1   -1.32    1.27
  -8  10   1    0.58    2.28
   8 -10   1   -1.38    1.26
   8  10  -1    1.35    1.56
  -8  10   1   -1.49    2.43
   8 -10   1   -0.16    1.55
   8  10  -1    0.83    2.06
   8  10  -1    2.70    1.63
  -8 -10  -1   -0.84    2.24
   8 -10  -1    0.49    1.47
   8 -10  -1    0.07    1.75
   8  10   1    1.78    1.51
   8  10   1    0.50    1.66
   8 -10  -1   -0.11    1.60
   8  10   1    0.30    1.59
  -8 -10   1   -1.33    2.45
  -8 -10   1    1.45    2.07
   8  10   1   -1.50    1.54
  -8  10  -1    0.72    2.21
  -1  11   1   17.65    1.22
   1 -11   1   16.53    1.28
   1  11  -1   18.45    1.19
  -1  11   1   18.30    2.17
   1  11  -1   17.78    1.32
   1  11  -1   18.04    1.19
  -1 -11  -1   17.91    1.85
   1 -11   1   14.22    1.92
  -1 -11  -1   18.32    1.32
  -1 -11  -1   15.36    2.30
  -1 -11  -1   16.53    1.11
  -1  11   1   18.00    1.23
  -1 -11  -1   17.05    2.48
  -1  11   1   19.62    2.64
   1  11  -1   17.47    1.21
   1  11  -1   17.18    1.28
   1  11  -1   18.47    3.00
  -1  11   1   17.65    1.24
  -1  11   1   17.40    1.27
   1  11  -1   17.81    1.13
   1  11  -1   18.38    2.08
  -1 -11  -1   20.54    2.27
   1  11  -1   20.00    1.97
   1 -11   1   17.44    1.51
   1 -11   1   13.41    1.82
  -1 -11  -1   17.46    1.24
  -1  11   1   21.85    2.43
   1 -11   1   16.26    1.10
  -1 -11  -1   15.84    1.78
   1  11   1   17.26    1.24
   1 -11  -1   16.55    2.26
   1  11   1   17.33    1.19
   1  11   1   17.03    1.14
   1  11   1   17.23    1.19
  -1 -11   1   17.64    1.03
   1 -11  -1   16.33    1.36
  -1  11  -1   15.94    1.19
  -1 -11   1   15.87    2.77
   1 -11  -1   15.96    1.24
   1 -11  -1   21.17    2.29
  -1  11  -1   17.72    1.41
  -1 -11   1   17.74    1.51
   1 -11  -1   20.37    2.70
  -1 -11   1   15.73    1.16
  -1 -11   1   18.13    2.16
  -1  11  -1   20.95    2.40
   1  11   1   16.11    2.64
   1  11   1   20.93    2.39
  -1  11  -1   16.87    1.47
  -1 -11   1   14.23    2.53
   1  11   1   16.87    1.20
  -1  11  -1   18.21    1.32
   1  11   1   16.15    1.10
  -1  11  -1   17.89    1.24
  -1  11  -1   17.04    1.48
  -1  11  -1   16.97    1.25
   1  11   1   18.74    1.30
  -1 -11   1   17.13    1.26
  -1 -11   1   17.37    1.21
  -1 -11   1   18.05    1.36
   1  11   1   18.59    2.17
  -3  11   1   12.69    3.48
  -3  11   1    7.97    1.28
  -3  11   1    8.90    1.21
   3 -11   1    7.34    3.09
  -3 -11  -1   15.07    4.00
   3  11  -1    7.37    3.52
   3 -11   1    7.81    1.26
   3  11  -1    6.93    0.75
   3 -11   1    6.24    1.05
   3  11  -1   10.43    3.48
  -3 -11  -1    5.54    3.22
  -3  11   1    9.05    3.38
   3  11  -1    7.51    1.07
  -3 -11  -1    7.57    1.25
  -3 -11  -1    8.32    2.12
   3 -11   1   13.97    3.30
  -3 -11  -1    8.97    3.76
  -3 -11  -1    4.86    1.87
  -3  11   1   10.04    3.30
   3  11  -1    6.24    0.76
  -3  11   1    6.78    0.83
   3 -11   1    8.41    1.25
  -3  11   1    7.71    1.15
   3  11  -1    5.29    1.01
  -3  11   1    9.42    1.26
   3 -11   1    9.87    3.51
   3  11  -1    9.62    4.22
  -3  11   1    7.60    1.10
   3  11  -1    8.16    1.09
   3 -11   1    8.15    1.49
  -3 -11  -1    9.55    4.13
  -3 -11  -1    6.71    1.40
  -3  11  -1    8.61    1.53
   3  11   1    5.07    3.42
   3 -11  -1    7.57    2.93
  -3  11  -1    9.44    1.30
  -3  11  -1    8.71    3.47
  -3  11  -1    8.37    3.70
   3  11   1    7.88    1.02
  -3 -11   1    3.71    3.97
  -3  11  -1    5.96    3.27
   3 -11  -1    6.91    3.13
  -3  11  -1    8.90    1.17
  -3 -11   1    5.32    1.11
  -3  11  -1    8.49    1.12
   3  11   1    7.71    0.88
   3  11   1    7.74    0.89
  -3 -11   1   12.00    4.67
   3 -11  -1    9.38    1.54
   3  11   1    6.94    1.09
  -3 -11   1   14.40    4.77
   3 -11  -1    6.78    2.85
   3 -11  -1    5.90    1.04
   3  11   1   10.87    4.06
  -3  11  -1    6.47    1.00
  -3 -11   1   10.23    1.79
  -3  11  -1    8.05    1.35
   3 -11  -1    7.50    1.07
  -3 -11   1    8.01    1.32
  -3 -11   1    5.29    1.34
   3  11   1    7.72    1.08
  -5  11   1    0.36    0.70
   5 -11   1    0.15    0.92
   5  11  -1    0.23    0.91
   5  11  -1    2.50    0.91
   5 -11   1    1.60    1.13
  -5  11   1    0.14    1.11
  -5 -11  -1    0.27    1.26
  -5 -11  -1    2.78    1.34
   5  11  -1    1.18    0.88
  -5 -11  -1    2.63    1.88
   5  11  -1    0.43    1.02
   5  11  -1    2.18    0.88
  -5  11   1    1.09    1.73
  -5 -11  -1   -2.14    1.62
  -5 -11  -1   12.39   11.57
   5 -11   1    1.29    0.69
  -5 -11  -1  -20.30   11.64
  -5  11   1    0.37    1.12
  -5  11   1    1.87    0.95
   5 -11   1    1.02    0.78
   5 -11  -1    0.88    0.79
   5 -11  -1    1.43    1.09
  -5  11  -1    0.29    1.43
   5 -11  -1    0.22    0.81
  -5 -11   1    0.18    1.80
   5  11   1    1.06    0.84
   5  11   1    1.51    1.14
  -5  11  -1    1.58    1.45
  -5  11  -1    1.90    1.39
  -5  11  -1    1.10    0.71
  -5 -11   1    1.50    1.57
   5  11   1    1.43    1.11
  -5  11  -1    0.46    0.64
  -5 -11   1   -0.32    0.89
  -5 -11   1    1.45    1.17
   5  11   1   -0.77   10.77
   5 -11  -1    0.49    1.20
   5  11   1    0.69    0.74
   5  11   1    0.32    0.82
  -5  11  -1    0.73    1.14
   7 -11   1   -0.65    1.09
   7  11  -1    2.05    1.42
   7  11  -1   -1.52    1.62
  -7 -11  -1   -2.45    2.79
   7 -11   1    0.18    1.08
   7  11  -1   -0.13    1.65
   7 -11   1    0.71    1.39
  -7  11   1    0.34    1.88
   7  11  -1    0.92    1.65
  -7  11   1   -2.03    2.12
  -7 -11  -1    1.49    1.98
  -7 -11  -1   -2.21    1.67
   7 -11   1   -0.12    1.44
  -7 -11   1   -0.01    3.42
  -7  11  -1    2.32    1.29
  -7 -11   1    1.26    1.61
   7  11   1    1.25    1.46
  -7 -11   1    1.04    3.58
   7  11   1    1.17    1.24
   7 -11  -1    0.32    1.20
  -7 -11   1   -2.39    1.92
   7 -11  -1    1.94    1.21
  -7  11  -1    3.84    2.04
   7  11   1    1.02    1.18
   7  11   1    1.15    1.35
   7 -11  -1    2.45    1.55
   7 -11  -1    1.02    1.50
   0  12  -1   18.31    1.37
   0 -12   1   18.60    1.15
   0 -12  -1   16.97    1.17
   0  12   1   18.31    2.35
   0 -12   1   17.82    1.65
   0  12   1   17.56    1.21
   0 -12  -1   18.72    1.30
   0  12   1   17.46    1.18
   0  12   1   17.63    1.24
   0  12  -1   16.94    1.22
   0  12   1   16.64    2.04
   0  12  -1   19.46    1.35
   0 -12  -1   16.85    1.58
   0  12  -1   18.39    1.30
   0  12   1   16.88    1.20
   0  12   1   18.68    1.20
   0 -12  -1   18.79    2.30
   0 -12   1   18.55    1.32
   0  12   1   21.85    2.32
   0  12  -1   19.54    1.31
   0 -12   1   17.71    1.34
   0  12  -1   17.61    1.27
   0 -12  -1   19.27    2.13
   0 -12  -1   17.38    1.45
   0 -12   1   19.59    1.78
   0 -12   1   17.93    1.37
   0 -12  -1   16.97    1.24
   0 -12  -1   20.91    2.26
   0  12  -1   17.53    1.83
   2  12  -1   10.48    0.89
  -2 -12  -1   17.08    3.32
   2 -12   1   12.71    1.15
  -2  12   1   11.90    0.90
  -2  12   1   13.38    2.35
  -2  12   1   11.74    1.09
  -2 -12  -1    9.27    1.06
  -2 -12  -1    8.12    2.26
  -2 -12  -1   13.07    1.27
   2  12  -1   11.36    0.75
   2  12  -1   10.92    1.16
   2  12  -1   10.84    0.82
   2  12  -1   10.99    0.98
  -2 -12  -1    9.64    2.08
   2 -12   1   10.35    1.20
   2  12  -1   11.01    1.08
  -2 -12  -1   14.00    2.64
  -2  12   1   12.56    0.97
   2 -12   1   14.82    2.40
  -2  12   1   11.24    1.22
  -2  12   1   10.11    0.98
   2 -12   1   11.93    1.07
  -2 -12  -1   10.64    1.04
   2  12  -1   13.04    2.75
   2  12  -1   10.92    1.02
   2  12  -1   12.10    3.58
  -2  12   1   11.07    2.54
   2 -12   1   12.00    2.47
  -2 -12  -1   19.07    3.22
   2  12  -1   10.16    0.97
   2 -12   1   10.53    1.22
   2 -12   1   11.39    2.50
  -2  12   1   13.39    2.35
   2  12  -1   13.09    2.53
   2  12  -1   10.59    0.87
  -2  12   1   10.69    1.21
  -2 -12  -1   14.42    2.22
  -2  12  -1   12.54    1.34
  -2 -12   1   12.10    1.35
   2  12   1   14.32    2.89
  -2  12  -1   13.82    2.07
  -2  12  -1   13.18    2.01
   2  12   1   11.88    1.00
   2  12   1   11.59    1.02
   2  12   1   12.63    2.83
   2 -12  -1   12.25    1.28
   2 -12  -1   11.57    1.05
  -2  12  -1   11.63    1.10
  -2  12  -1   20.47    3.30
   2  12   1   10.35    0.93
   2 -12  -1   10.41    2.47
  -2 -12   1   11.08    3.01
   2 -12  -1   11.43    2.33
   2 -12  -1   12.04    2.44
   2  12   1   10.23    0.90
  -2  12  -1   11.52    1.09
  -2 -12   1   12.61    1.71
   2  12   1   10.75    0.83
  -2 -12   1   11.75    1.15
  -2  12  -1   11.61    1.03
   2  12   1   12.13    0.97
  -2 -12   1   12.55    3.47
  -2 -12   1   18.00    3.64
   2  12   1   11.85    1.03
  -4 -12  -1    3.06    5.77
  -4  12   1   -9.49    5.00
   4  12  -1    3.49    1.03
  -4  12   1    3.82    1.17
   4  12  -1    2.17    0.68
  -4 -12  -1    4.84    2.02
  -4 -12  -1    4.35    1.56
  -4 -12  -1   11.76    6.25
  -4 -12  -1   10.85    2.45
   4  12  -1    5.89    1.01
   4  12  -1    2.65    4.89
  -4  12   1   -1.67    5.61
   4 -12   1    4.46    0.95
   4 -12   1    3.64    1.27
   4 -12   1    4.18    1.09
  -4  12   1    3.59    1.18
  -4 -12  -1    4.09    1.20
  -4  12   1    5.32    1.10
  -4  12   1    3.18    1.01
   4  12  -1    5.36    5.17
   4 -12   1    4.13    1.06
   4 -12   1    8.22    6.13
   4  12  -1    3.30    0.74
   4 -12   1    1.23    4.20
  -4 -12  -1   -0.31    5.93
  -4  12   1    4.47    1.05
  -4  12   1    6.57    5.92
  -4 -12  -1   10.18    6.46
   4 -12   1    7.57    4.35
   4  12  -1    3.04    0.89
  -4  12   1    4.31    0.77
   4  12  -1    2.93    6.73
  -4  12  -1   11.00    4.74
   4  12   1    6.09    5.90
  -4 -12   1   15.91    7.81
   4 -12  -1    2.98    0.95
   4  12   1    2.18    0.72
   4 -12  -1   -3.29    4.27
  -4  12  -1    2.19    4.82
  -4  12  -1    5.35    1.15
  -4  12  -1    4.63    1.20
  -4  12  -1    4.33    1.34
   4  12   1    2.41    0.83
  -4 -12   1    4.37    1.11
   4 -12  -1    4.18    0.96
   4 -12  -1    3.24    1.19
   4 -12  -1   -5.76    4.24
   4  12   1    4.53    0.94
  -4 -12   1    1.21    5.61
  -4  12  -1    4.90    4.87
   4  12   1    3.56    6.49
  -4 -12   1    3.02    1.44
  -4  12  -1    3.86    0.97
  -4 -12   1    0.50    6.45
   4  12   1    2.35    0.93
   4 -12  -1    3.20    5.83
   4  12   1    3.41    0.79
  -4  12  -1    5.56    1.03
  -4 -12   1    4.28    1.24
  -4  12  -1    6.96    1.57
  -4 -12   1    4.08    1.48
   6  12  -1    0.91    1.11
  -6 -12  -1    2.13    2.18
  -6 -12  -1    1.57    1.51
  -6  12   1    3.37    1.22
   6 -12   1   -0.39    1.02
  -6 -12  -1    1.46    1.66
   6  12  -1    1.25    1.14
  -6 -12  -1    2.81    2.42
   6  12  -1    0.92    1.18
   6 -12   1    0.30    0.87
   6  12  -1    2.06    1.23
  -6  12   1    0.86    1.52
   6 -12   1    0.92    1.07
  -6  12   1    2.09    1.50
   6 -12   1   -0.07    1.22
   6  12  -1    2.71    1.21
   6  12   1   -0.11    1.02
   6 -12  -1    2.63    1.50
  -6  12  -1    3.60    1.86
   6  12   1    1.93    1.42
   6  12   1    1.35    2.01
   6  12   1    1.19    1.24
   6 -12  -1    1.85    1.21
  -6 -12   1    0.41    1.31
   6 -12  -1    0.65    1.01
   6  12   1   -0.06    0.97
  -6  12  -1    1.02    0.92
  -6 -12   1    3.52    2.36
  -6 -12   1   -0.58    1.53
  -6  12  -1    0.55    1.59
   6 -12  -1    2.91    1.19
  -6  12  -1    1.33    0.97
  -6 -12   1    4.54    2.37
   8 -12   1    0.16    1.39
   8  12  -1    2.65    1.65
   8 -12   1   -2.41    1.60
   8  12  -1    0.65    1.67
  -8 -12  -1   -2.96    2.20
  -8  12   1    1.64    2.39
   8  12  -1    3.12    2.38
   8 -12   1    1.09    1.32
  -8  12   1   -3.53    2.71
  -8  12  -1    4.37    2.39
   8 -12  -1   -0.99    1.74
   8  12   1   -0.50    1.56
   8 -12  -1    0.53    1.72
  -8 -12   1   -0.52    2.48
   8 -12  -1   -0.65    1.42
   8  12   1   -1.48    1.84
   8  12   1   -0.57    1.66
  -8 -12   1   -0.93    2.10
   8  12   1    3.12    1.62
  -1 -13  -1    8.61    1.81
   1  13  -1    8.21    0.82
   1  13  -1    7.27    0.60
  -1 -13  -1    9.94    1.59
  -1  13   1    7.81    0.70
  -1  13   1    9.38    1.84
  -1  13   1    7.53    0.73
  -1 -13  -1    6.90    0.58
  -1  13   1    7.92    0.70
   1 -13   1    7.55    0.58
  -1 -13  -1    7.31    0.76
  -1 -13  -1    7.11    1.76
   1 -13   1    7.35    1.34
   1 -13   1    6.25    1.25
  -1 -13  -1   10.81    1.90
   1  13  -1    8.07    0.69
   1 -13   1    8.29    1.09
   1  13  -1    8.78    1.53
   1  13  -1    5.90    2.23
  -1  13   1    6.53    1.55
   1  13  -1    8.92    0.79
   1 -13   1    7.66    0.81
   1  13  -1    7.07    0.61
  -1  13   1    7.84    0.76
  -1  13   1    9.68    1.85
   1  13  -1    6.80    0.67
  -1 -13  -1   10.02    1.59
  -1 -13  -1    7.90    0.74
   1  13   1    7.20    0.65
   1  13   1    7.94    0.65
  -1 -13   1    7.35    0.67
   1  13   1    8.29    1.74
  -1 -13   1    6.87    0.74
   1 -13  -1    8.75    1.07
   1  13   1    7.44    0.58
  -1  13  -1    8.20    0.76
   1  13   1    7.89    0.84
  -1  13  -1    8.00    1.06
  -1  13  -1    9.87    1.54
  -1 -13   1    8.01    0.73
  -1 -13   1    7.97    0.71
   1  13   1   10.33    2.05
   1  13   1    8.46    0.75
  -1 -13   1    8.04    1.38
  -1  13  -1    7.75    0.98
  -1 -13   1    5.99    2.17
  -1  13  -1    7.65    0.70
   1 -13  -1    8.86    1.74
  -1  13  -1    8.99    0.81
  -1 -13   1    7.58    2.20
   1 -13  -1    7.66    0.73
   1  13   1    8.28    1.73
  -1 -13   1    6.35    1.05
  -1  13  -1    8.49    0.96
  -1  13  -1    7.60    0.74
   1 -13  -1    8.88    1.81
   1  13   1    7.60    0.68
   1 -13  -1    7.52    1.72
  -1 -13   1    7.85    1.40
  -3  13   1    2.62    2.67
  -3  13   1    6.82    2.87
  -3 -13  -1    0.19    2.99
  -3 -13  -1    4.11    3.25
   3 -13   1    4.38    1.10
  -3  13   1    5.21    0.68
  -3 -13  -1    0.03    3.35
   3  13  -1    5.35    0.94
  -3 -13  -1    4.74    1.02
   3 -13   1    4.16    0.84
  -3 -13  -1    7.51    2.16
  -3  13   1    5.30    3.26
   3  13  -1    4.00    0.74
   3 -13   1    4.13    0.96
   3  13  -1    2.04    3.59
  -3 -13  -1    4.31    3.76
   3  13  -1   -0.07    3.15
  -3 -13  -1    2.79    1.14
   3  13  -1    5.34    0.81
   3 -13   1    3.19    2.85
  -3  13   1    4.60    0.83
  -3  13   1    5.39    0.93
   3  13  -1    1.81    4.16
   3  13  -1    3.85    0.74
  -3  13   1    4.31    1.06
   3 -13   1    4.30    2.87
   3 -13   1    5.83    2.93
   3  13  -1    3.88    0.64
  -3  13   1    6.10    1.06
  -3  13   1    5.55    1.02
   3  13  -1    4.07    0.58
  -3 -13  -1    6.66    2.13
   3  13  -1    3.61    0.58
  -3 -13   1    3.90    1.08
  -3  13  -1    1.86    2.97
   3 -13  -1    5.19    3.39
  -3  13  -1    4.51    0.95
  -3  13  -1    4.40    1.15
  -3  13  -1    2.65    3.46
   3 -13  -1    4.14    0.82
   3  13   1    1.49    3.46
   3 -13  -1   -0.34    2.55
  -3 -13   1    7.98    4.43
   3  13   1    4.24    0.71
  -3 -13   1    3.74    1.35
  -3 -13   1    3.81    1.02
   3  13   1    4.54    0.84
   3  13   1    3.42    0.59
   3 -13  -1    3.90    1.14
  -3  13  -1    4.00    0.95
   3 -13  -1    4.40    0.85
   3  13   1    5.19    0.78
   3  13   1    3.31    0.66
  -3  13  -1    3.62    0.77
  -3 -13   1    3.16    1.13
   3  13   1    6.62    3.52
  -3  13  -1    4.20    0.80
  -3  13  -1    4.51    2.88
   3 -13  -1    6.76    2.76
   3  13   1    4.83    0.86
  -3 -13   1    1.44    4.62
  -3 -13   1    9.22    4.83
   5  13  -1   -0.02    0.85
  -5 -13  -1    0.75    1.81
  -5 -13  -1    1.14    1.46
   5  13  -1    0.51    0.95
   5 -13   1    0.22    0.93
   5 -13   1    2.60    1.32
  -5 -13  -1   -0.12    1.35
  -5  13   1    2.86    1.18
   5 -13   1    3.28    1.35
  -5  13   1    2.68    0.84
   5  13  -1    2.07    1.17
   5  13  -1    0.65    0.87
   5 -13   1    2.08    0.86
  -5  13   1    0.18    1.17
  -5  13   1    2.88    0.98
   5  13  -1    2.28    0.99
  -5 -13  -1    1.56    1.88
  -5  13  -1    1.23    0.71
  -5 -13   1    0.15    1.67
  -5 -13   1    1.68    1.29
  -5  13  -1    2.90    0.92
   5  13   1    1.83    0.90
   5  13   1    0.45    0.90
   5 -13  -1    3.20    1.52
   5 -13  -1    1.79    1.02
   5  13   1    3.26    1.23
   5 -13  -1    1.45    1.03
  -5  13  -1    3.19    1.49
   5 -13  -1    2.42    1.10
   5  13   1    1.25    0.76
  -5 -13   1    2.11    1.15
  -5 -13   1    0.22    1.70
  -5  13  -1    4.88    1.80
   5  13   1    2.36    1.20
  -7 -13  -1   -1.06    2.08
  -7  13   1    1.60    1.38
   7 -13   1    1.17    1.20
   7 -13   1    0.50    1.37
   7  13  -1    3.03    1.49
  -7 -13  -1   -3.68    3.34
  -7  13   1    1.24    1.95
  -7 -13  -1    2.72    1.96
  -7 -13  -1    0.65    2.81
   7  13  -1   -0.60    1.46
   7  13  -1   -0.60    1.80
   7 -13   1    1.04    1.54
  -7  13   1    3.06    2.15
   7 -13   1    0.24    1.09
   7  13  -1    0.80    1.98
  -7  13  -1   -0.96    1.24
  -7 -13   1    0.38    1.54
   7  13   1    2.69    1.33
  -7 -13   1   -2.17    3.15
   7  13   1    0.85    1.41
   7 -13  -1    1.64    1.51
   7 -13  -1   -0.03    1.27
   7 -13  -1    1.26    1.24
  -7 -13   1   -2.58    2.11
   7  13   1    1.76    1.42
   7  13   1   -0.56    1.25
   7 -13  -1    2.95    1.56
   7  13   1    1.06    1.60
  -7 -13   1   -0.99    3.50
  -7  13  -1    2.13    1.95
   0 -14  -1  202.02   11.46
   0  14   1  186.99   11.14
   0  14   1  191.69   12.11
   0 -14   1  191.21   11.42
   0 -14   1  203.41   11.08
   0  14   1  195.69   11.18
   0 -14   1  210.08   11.38
   0 -14   1  198.44   11.56
   0 -14  -1  202.60   12.44
   0 -14   1  199.73   11.30
   0  14   1  192.90   12.32
   0 -14   1  203.74   11.69
   0  14   1  205.12   12.53
   0 -14  -1  196.07   11.27
   0 -14   1  164.53   11.23
   0  14   1  195.33   11.12
   0 -14  -1  194.82   11.22
   0 -14  -1  196.72   12.48
   0  14  -1  196.17   11.33
   0  14  -1  203.87   11.37
   0  14  -1  197.46   11.20
   0 -14  -1  191.01   11.11
   0 -14  -1  207.88   12.28
   0  14   1  205.42   11.22
   0 -14  -1  195.72   11.62
   0  14  -1  188.76   11.25
   0  14  -1  191.93   11.23
   0  14  -1  192.02   11.26
   0  14  -1  205.65   11.69
   0 -14   1  187.27   11.04
   2 -14   1  137.78    8.41
  -2  14   1  149.02    9.89
   2 -14   1  125.18    9.52
  -2  14   1  129.79    8.61
  -2  14   1  148.98    8.61
   2  14  -1  143.19    8.29
  -2 -14  -1  125.00    9.79
  -2 -14  -1  139.87    8.56
  -2 -14  -1  136.68    9.94
   2  14  -1  147.01    8.52
   2 -14   1  149.76    8.70
   2 -14   1  134.38    8.64
  -2  14   1  139.90    8.42
  -2 -14  -1  145.78    8.49
  -2  14   1  145.80    8.37
  -2  14   1  138.62    8.51
   2  14  -1  147.64    8.60
  -2  14   1  141.72   10.09
   2  14  -1  145.91    8.40
  -2 -14  -1  155.85   10.28
   2  14  -1  145.00    8.24
  -2 -14  -1  159.54   10.66
   2  14  -1  149.91   10.39
   2 -14   1  146.48    9.49
   2  14  -1  153.19   11.67
  -2 -14  -1  136.46   10.24
  -2  14   1  147.79   10.26
   2  14  -1  149.68    8.42
   2  14  -1  134.36    8.34
   2  14  -1  155.06   10.11
   2  14  -1  141.23    8.21
  -2 -14  -1  145.92    8.59
   2 -14   1  134.64    9.85
   2 -14   1  154.53    8.57
  -2 -14  -1  138.74    9.70
   2  14   1  145.68    8.36
  -2 -14   1  133.36   11.26
  -2  14  -1  141.76    8.41
  -2  14  -1  142.37    8.53
   2  14   1  141.88    8.39
  -2  14  -1  148.56   10.31
  -2  14  -1  143.34    8.46
  -2 -14   1  147.23    8.59
   2 -14  -1  135.77    8.33
   2  14   1  139.95    8.18
  -2  14  -1  145.23    9.12
   2 -14  -1  146.66   10.31
   2  14   1  137.54    8.34
   2 -14  -1  160.28    8.79
   2 -14  -1  146.21   10.11
  -2 -14   1  152.77    9.45
   2 -14  -1  150.87    8.49
  -2  14  -1  145.01    9.30
   2  14   1  134.44    8.29
   2  14   1  148.65   10.66
  -2 -14   1  138.28    8.52
  -2  14  -1  137.48    8.40
  -2  14  -1  165.30    8.97
   2  14   1  143.24   10.48
   2  14   1  137.83    8.41
  -2 -14   1  149.47    8.81
  -2 -14   1  135.50   10.97
  -2 -14   1  149.31    9.28
   2 -14  -1  147.35    9.86
  -4 -14  -1   67.98    9.95
  -4 -14  -1   67.86   10.14
   4 -14   1   73.86    4.78
  -4  14   1   62.29    9.16
   4 -14   1   80.55    8.65
   4  14  -1   71.40    4.77
   4  14  -1   74.42    4.54
  -4 -14  -1   70.89    5.38
   4 -14   1   69.21    5.17
  -4 -14  -1   75.39    6.08
   4  14  -1   66.82    4.77
  -4 -14  -1   68.29    6.38
  -4  14   1   70.82    4.91
  -4 -14  -1   62.83   10.00
  -4  14   1   67.91    4.52
  -4  14   1   59.49    9.67
  -4  14   1   75.46    5.04
  -4  14   1   73.61    4.82
  -4 -14  -1   64.92    5.52
   4 -14   1   79.91    9.19
  -4  14   1   64.50    4.88
  -4  14   1   69.13    5.17
  -4 -14  -1   50.75    9.80
   4 -14   1   66.51    4.95
   4  14  -1   67.53    4.42
   4 -14   1   74.05    5.01
  -4  14   1   62.19    9.17
   4  14  -1   68.94    4.86
  -4  14  -1   70.61    9.24
   4 -14  -1   68.31    5.20
   4  14   1   78.46    5.04
   4 -14  -1   63.44    9.87
  -4  14  -1   67.18    4.57
  -4 -14   1   74.33    5.65
  -4 -14   1   74.32    5.26
   4  14   1   62.94   10.18
   4 -14  -1   53.97    8.34
   4  14   1   74.75    4.74
   4  14   1   75.25    4.88
   4 -14  -1   44.76    7.94
  -4  14  -1   72.23    4.81
   4  14   1   51.17    9.05
  -4 -14   1   68.45    5.93
   4  14   1   75.66    4.51
   4 -14  -1   71.84    5.00
   4 -14  -1   65.91    4.80
  -4  14  -1   75.50    4.84
  -4  14  -1   78.54    9.76
  -4  14  -1   69.95    5.10
  -4 -14   1   68.81    5.24
  -4  14  -1   64.90    8.93
   4  14   1   72.25    4.72
  -4  14  -1   70.41    5.38
  -6 -14  -1   31.55    3.86
   6  14  -1   32.88    3.11
   6 -14   1   34.45    2.97
  -6  14   1   27.91    2.80
  -6 -14  -1   31.57    4.26
   6 -14   1   30.65    2.82
   6  14  -1   21.83    2.66
   6 -14   1   29.17    3.32
   6  14  -1   30.88    3.21
  -6  14   1   28.39    3.38
   6  14  -1   28.45    3.14
   6 -14   1   33.53    3.15
  -6 -14  -1   24.57    4.41
   6  14  -1   26.76    2.77
   6  14  -1   29.79    2.98
  -6  14   1   26.28    3.59
  -6 -14  -1   29.72    3.40
  -6 -14   1   26.89    4.71
  -6  14  -1   34.45    3.90
  -6  14  -1   30.09    2.74
  -6  14  -1   32.19    3.80
   6 -14  -1   29.82    2.91
   6  14   1   36.96    3.48
  -6 -14   1   34.11    4.53
   6 -14  -1   27.63    3.05
   6 -14  -1   28.61    3.71
  -6 -14   1   27.43    3.64
   6  14   1   32.57    2.88
  -6  14  -1   29.03    2.78
   6  14   1   32.32    3.15
  -6 -14   1   25.73    3.11
   6 -14  -1   26.85    2.99
   6  14   1   32.19    2.93
   6  14   1   33.55    2.94
  -8  14   1   13.48    2.95
   8 -14   1   10.71    1.88
   8  14  -1    9.64    3.03
  -8 -14  -1    8.09    2.52
   8  14  -1   12.14    2.29
   8  14  -1    9.20    2.14
   8 -14   1    9.57    1.90
   8 -14   1   14.05    2.51
  -8 -14   1   10.25    3.20
   8 -14  -1   12.58    2.31
   8 -14  -1   15.79    2.78
   8  14   1    4.18    1.92
   8  14   1    7.62    1.98
   8  14   1    5.85    2.12
  -8 -14   1   10.05    2.64
  -8  14  -1    6.33    2.59
   8  14   1   12.33    2.28
   8 -14  -1   10.18    2.09
  -1  15   1  129.70    8.94
   1 -15   1  132.45    7.89
   1  15  -1  136.36    8.00
   1  15  -1  136.59    7.78
   1  15  -1  134.32    7.76
   1  15  -1  134.13    7.88
  -1  15   1  134.15    7.90
  -1  15   1  133.29    7.89
  -1  15   1  133.87    7.92
  -1 -15  -1  135.06    9.37
  -1 -15  -1  141.83    8.76
  -1 -15  -1  147.35    8.78
   1  15  -1  126.99    9.78
  -1  15   1  144.23    7.93
   1  15  -1  134.92    7.97
   1 -15   1  137.26    8.19
   1 -15   1  127.18    8.24
  -1 -15  -1  131.19    7.71
  -1 -15  -1  140.29    9.49
   1  15  -1  147.82    8.81
  -1 -15  -1  147.58    9.25
  -1 -15  -1  146.05    8.04
   1 -15   1  127.24    7.72
  -1  15   1  136.01    9.32
  -1 -15  -1  140.03    7.95
  -1  15   1  112.67    8.98
   1  15  -1  138.87    7.89
   1 -15   1  135.13    7.92
   1 -15   1  135.91    8.38
   1  15   1  134.89    7.92
  -1 -15   1  133.70    7.95
  -1  15  -1  137.68    8.02
  -1 -15   1  122.72    9.40
   1  15   1  138.35    9.29
  -1 -15   1  123.33    9.75
   1 -15  -1  139.66    7.96
  -1 -15   1  135.47    8.50
   1  15   1  141.43    9.10
   1  15   1  134.64    7.85
   1 -15  -1  137.50    9.27
  -1  15  -1  132.03    7.90
   1 -15  -1  138.26    8.08
  -1  15  -1  140.86    7.96
   1  15   1  138.23    7.87
  -1  15  -1  139.66    8.10
   1 -15  -1  139.86    9.05
   1  15   1  137.67    9.51
  -1 -15   1  134.34    7.88
  -1 -15   1  138.24    8.50
   1 -15  -1  144.40    9.47
  -1  15  -1  128.02    8.36
  -1  15  -1  129.07    8.29
  -1  15  -1  138.81    7.90
  -1 -15   1  139.39    8.68
  -1 -15   1  134.32    7.85
  -1  15  -1  138.37    8.00
   1  15   1  136.07    7.81
  -1 -15   1  135.46    7.86
   1  15   1  137.92    8.03
   1  15   1  135.44    7.72
   3 -15   1   76.48    7.67
  -3 -15  -1   61.17    8.34
  -3  15   1   72.57    7.69
  -3  15   1   77.80    4.89
   3  15  -1   76.22    4.54
   3 -15   1   70.86    4.89
   3  15  -1   78.56    4.82
   3 -15   1   96.25    7.48
   3  15  -1   72.79    4.37
  -3  15   1   76.38    5.07
  -3 -15  -1   77.81    7.59
   3 -15   1   77.40    5.01
   3  15  -1   69.11    4.53
   3  15  -1   69.51    4.76
   3  15  -1   72.89    4.88
  -3 -15  -1   68.90    6.49
  -3 -15  -1   83.91    8.04
   3  15  -1   79.64    7.80
  -3  15   1   76.05    5.23
   3 -15   1   80.90    5.25
  -3  15   1   72.19    7.45
  -3 -15  -1   74.95    7.89
  -3 -15  -1   84.15    5.26
   3  15  -1   75.28    4.58
   3  15  -1   74.42    8.37
   3  15  -1   76.57    9.64
  -3  15   1   72.32    4.65
  -3 -15  -1   75.16    6.28
  -3 -15  -1   74.57    5.38
   3  15  -1   76.02    4.85
  -3  15   1   72.87    5.02
   3 -15   1   83.02    7.52
  -3  15   1   75.53    7.90
  -3 -15   1   75.31    5.30
  -3  15  -1   69.53    4.90
  -3 -15   1   64.70    5.09
   3 -15  -1   85.95    7.81
   3  15   1   74.12    4.49
  -3  15  -1   79.19    5.11
  -3  15  -1   83.55    8.12
   3  15   1   67.50    8.50
   3 -15  -1   75.32    7.79
   3  15   1   80.42    4.87
  -3  15  -1   70.03    7.00
  -3 -15   1   77.53    9.46
   3 -15  -1   75.66    4.89
   3  15   1   73.02    8.44
  -3 -15   1   82.96    5.80
  -3 -15   1   83.24    9.57
   3 -15  -1   82.63    7.45
   3  15   1   76.27    4.74
  -3  15  -1   80.85    5.28
   3 -15  -1   75.78    5.22
   3  15   1   73.33    4.72
  -3 -15   1   75.60    9.46
  -3  15  -1   79.22    4.98
   3  15   1   76.23    4.69
  -3 -15   1   75.38    5.92
   3  15   1   77.27    4.88
  -3  15  -1   77.27    6.78
  -3  15  -1   74.00    4.85
   3 -15  -1   70.75    4.82
  -5  15   1   33.27    2.84
   5  15  -1   29.64    2.84
   5  15  -1   28.09    2.63
  -5 -15  -1   32.46    3.61
   5 -15   1   28.51    2.87
  -5 -15  -1   40.55    4.03
   5 -15   1   27.24    3.02
  -5  15   1   30.85    2.49
  -5  15   1   26.43    3.09
  -5 -15  -1   27.58    4.33
  -5  15   1   27.70    2.98
   5  15  -1   25.52    2.55
  -5 -15  -1   37.55    3.66
   5 -15   1   26.19    2.52
   5 -15   1   31.69    2.92
   5  15  -1   25.68    2.77
   5  15  -1   28.16    2.45
   5  15  -1   28.25    2.80
   5  15   1   27.95    2.67
  -5 -15   1   33.20    3.37
  -5  15  -1   31.67    3.50
   5  15   1   26.95    2.92
  -5 -15   1   28.00    3.90
   5  15   1   28.67    2.80
   5  15   1   29.68    2.62
  -5 -15   1   32.65    4.56
   5  15   1   28.03    2.67
  -5 -15   1   29.17    3.07
   5  15   1   30.89    2.76
  -5  15  -1   32.39    2.71
   5 -15  -1   26.06    3.22
  -5  15  -1   29.30    2.59
   5 -15  -1   27.79    2.85
  -5  15  -1   33.28    3.36
   5 -15  -1   29.36    2.86
   5 -15  -1   27.49    2.91
   7  15  -1   17.27    2.87
  -7  15   1    6.71    1.73
  -7 -15  -1    6.65    4.03
   7  15  -1    7.44    2.12
   7  15  -1   10.58    2.12
  -7  15   1   12.95    2.97
  -7 -15  -1    5.37    2.06
  -7 -15  -1    9.09    3.69
   7  15  -1   11.80    1.98
  -7  15   1   11.11    2.55
   7 -15   1    9.27    1.83
   7 -15   1   11.54    1.98
   7 -15   1   11.96    2.23
   7 -15   1    7.14    1.96
   7 -15  -1   12.29    2.19
  -7 -15   1    8.78    2.70
   7  15   1    9.78    1.89
   7 -15  -1    9.85    1.83
  -7 -15   1    9.02    3.72
  -7  15  -1   10.46    2.52
   7  15   1    9.21    1.81
  -7  15  -1   10.92    1.92
   7 -15  -1   11.07    2.14
  -7  15  -1    5.00    1.79
   7  15   1    8.85    2.12
  -7 -15   1    8.31    2.25
  -7 -15   1    9.86    4.05
   7  15   1    9.42    2.03
   7 -15  -1    8.25    2.09
   7  15   1    6.87    1.89
   0  16   1   23.23    2.69
   0  16  -1   22.57    1.61
   0 -16   1   24.13    2.17
   0  16   1   21.17    1.54
   0 -16  -1   22.94    1.84
   0  16   1   24.26    3.01
   0  16   1   21.76    2.78
   0 -16  -1   21.32    2.82
   0  16  -1   23.12    1.92
   0  16   1   24.37    1.49
   0  16   1   22.31    1.78
   0  16  -1   21.64    1.61
   0  16   1   22.80    1.53
   0 -16  -1   16.51    2.69
   0 -16   1   22.11    1.41
   0 -16  -1   21.88    1.55
   0  16  -1   21.00    1.57
   0  16  -1   21.99    1.54
   0 -16   1   21.54    1.39
   0 -16  -1   18.75    2.70
   0  16   1   21.23    1.50
   0 -16   1   24.26    2.36
   0 -16  -1   25.37    2.09
   0 -16   1   22.56    2.31
   0  16  -1   23.12    1.69
   0 -16   1   23.44    1.90
   0 -16   1   23.50    1.90
   0  16  -1   25.95    2.38
   0 -16   1   21.81    1.80
   0 -16   1   20.17    1.54
   0 -16  -1   22.67    1.63
  -2  16   1   17.07    3.01
  -2  16   1   17.68    2.92
   2 -16   1   18.36    1.73
  -2  16   1   17.51    1.56
  -2  16   1   14.97    3.12
   2 -16   1   15.98    3.00
   2  16  -1   19.17    1.43
  -2  16   1   15.92    1.74
   2 -16   1   18.29    1.55
  -2  16   1   17.68    1.43
   2 -16   1   18.81    2.55
  -2 -16  -1   17.23    3.27
   2  16  -1   17.81    1.54
   2  16  -1   17.95    1.27
  -2  16   1   18.54    1.41
  -2 -16  -1   16.46    2.87
  -2 -16  -1   25.53    3.86
   2  16  -1   18.41    1.38
   2  16  -1   23.41    5.00
   2  16  -1   17.61    1.41
  -2  16   1   19.41    1.66
  -2 -16  -1   16.60    1.54
   2  16  -1   18.39    1.29
   2  16  -1   17.93    1.62
  -2 -16  -1   17.52    2.83
  -2 -16  -1   18.76    3.35
  -2 -16  -1   19.02    1.51
   2 -16   1   14.91    2.84
   2 -16   1   17.22    1.40
   2 -16   1   18.81    1.66
  -2 -16  -1   14.61    2.94
   2  16  -1   22.27    3.67
   2  16   1   19.56    1.45
  -2  16  -1   17.68    1.80
  -2 -16   1   19.23    2.85
   2 -16  -1   15.83    1.44
   2 -16  -1   19.76    3.08
   2 -16  -1   18.62    1.47
  -2 -16   1   21.24    3.03
   2  16   1   19.11    3.55
   2 -16  -1   18.70    3.11
   2  16   1   11.51    3.26
  -2 -16   1   17.59    1.52
  -2 -16   1   17.10    1.67
  -2  16  -1   18.75    1.49
  -2 -16   1   11.82    4.17
   2  16   1   18.62    1.49
  -2 -16   1   13.56    2.77
  -2 -16   1   15.51    2.26
  -2  16  -1   21.72    2.57
  -2  16  -1   19.41    1.49
  -2  16  -1   17.85    1.54
  -2  16  -1   18.67    1.51
   2  16   1   17.74    1.18
   2 -16  -1   16.27    1.68
   2  16   1   17.13    1.36
   2  16   1   17.96    1.33
   2 -16  -1   25.69    3.74
   2  16   1   17.71    1.46
  -2 -16   1   14.46    4.23
   2  16   1   17.44    1.37
  -2  16  -1   17.57    3.46
  -2  16  -1   20.67    2.40
  -2 -16   1   15.64    1.59
  -4  16   1   13.40    1.91
   4 -16   1   11.24    5.51
  -4 -16  -1    8.31    7.37
  -4  16   1   11.13    1.72
   4  16  -1   10.11    1.19
  -4  16   1   14.11    2.00
  -4 -16  -1    9.14    2.06
  -4 -16  -1   16.34    3.45
  -4 -16  -1   11.80    2.69
  -4  16   1    9.94    6.76
   4 -16   1   10.33    1.56
   4  16  -1   11.67    1.34
   4 -16   1    8.63    1.73
  -4 -16  -1   16.03    7.85
   4  16  -1    9.86    1.43
   4 -16   1   10.85    6.00
   4 -16   1   12.20    5.19
   4  16  -1   10.99    1.54
  -4  16   1   11.42    1.70
   4  16  -1   10.59    1.53
  -4 -16  -1   24.53    7.36
  -4  16   1   11.45    1.34
  -4 -16  -1   14.15    7.79
  -4 -16  -1   10.64    1.97
   4 -16   1   11.22    2.17
   4 -16   1   11.02    1.65
  -4  16   1   12.89    6.55
   4  16  -1   12.64    1.60
  -4  16   1   14.86    7.15
   4  16   1   10.67    1.37
   4 -16  -1    9.81    1.58
  -4  16  -1   12.55    1.69
   4  16   1    1.21    6.95
  -4  16  -1   14.05    2.23
   4  16   1   14.19    8.17
   4 -16  -1    3.16    5.79
  -4  16  -1   11.48    1.52
   4 -16  -1    7.79    6.49
   4  16   1   11.63    1.48
  -4  16  -1   12.46    5.96
   4 -16  -1   10.73    1.76
   4 -16  -1   10.96    8.98
  -4 -16   1   11.21    1.80
   4 -16  -1   10.28    1.95
  -4 -16   1   13.38    2.71
   4  16   1   10.53    1.37
   4  16   1   10.29    1.55
  -4  16  -1   17.06    6.16
  -4  16  -1   11.45    1.78
   4  16   1   11.97    1.22
   4  16   1    9.93    1.56
  -4 -16   1   13.26    2.61
  -4  16  -1    6.74    6.00
  -4 -16   1   13.16    2.03
  -6 -16  -1    3.25    1.87
   6  16  -1    8.01    1.73
   6  16  -1    5.78    1.54
  -6  16   1    6.17    1.47
   6  16  -1    8.58    2.01
  -6  16   1    9.51    2.39
   6 -16   1    7.81    1.60
  -6  16   1    3.13    1.91
   6  16  -1    3.13    1.51
  -6  16   1    4.25    1.98
  -6 -16  -1    7.58    2.34
   6 -16   1    6.23    1.49
  -6 -16  -1    4.38    2.85
  -6 -16  -1    6.63    3.04
   6  16  -1    3.62    1.47
   6 -16   1    5.49    1.79
   6  16  -1    6.52    1.66
   6 -16   1    8.57    1.80
   6  16   1    5.08    1.70
  -6 -16   1    1.47    1.87
   6 -16  -1    6.66    2.07
   6  16   1    6.49    1.50
  -6 -16   1    8.56    3.26
   6 -16  -1    6.14    1.75
  -6  16  -1    8.34    2.18
  -6  16  -1    7.05    1.51
  -6 -16   1    8.96    3.01
  -6  16  -1    7.64    1.41
   6  16   1    5.18    1.45
   6 -16  -1    5.91    1.61
  -6 -16   1    4.81    1.68
   6  16   1    6.28    1.94
   6 -16  -1    7.99    1.68
   6  16   1    3.28    1.50
  -1  17   1  220.53   15.00
  -1 -17  -1  211.30   12.50
   1 -17   1  213.61   12.75
   1  17  -1  207.26   12.47
   1  17  -1  219.93   12.40
   1  17  -1  212.93   12.27
   1 -17   1  227.05   12.90
   1 -17   1  187.87   12.45
  -1 -17  -1  209.34   14.05
  -1 -17  -1  225.25   13.35
   1 -17   1  205.71   12.37
   1 -17   1  207.09   12.20
   1 -17   1  223.46   12.79
   1  17  -1  213.94   12.39
   1 -17   1  208.78   12.52
   1  17  -1  205.47   14.29
   1  17  -1  214.71   12.48
  -1 -17  -1  221.28   13.29
  -1 -17  -1  216.95   13.76
   1  17  -1  222.72   13.31
  -1  17   1  218.65   12.42
  -1  17   1  217.65   12.38
  -1 -17  -1  206.33   12.17
  -1  17   1  213.38   12.41
  -1 -17  -1  226.92   14.12
  -1  17   1  231.28   12.46
  -1 -17  -1  216.91   12.46
   1 -17  -1  216.72   14.04
   1 -17  -1  227.86   13.68
  -1 -17   1  209.37   14.00
   1  17   1  216.18   12.19
  -1 -17   1  210.15   12.34
   1 -17  -1  218.58   12.61
   1  17   1  217.90   12.40
  -1 -17   1  220.37   12.36
   1  17   1  214.01   12.55
  -1 -17   1  202.14   12.31
   1  17   1  228.21   13.99
  -1  17  -1  220.23   12.86
  -1  17  -1  211.68   12.85
   1  17   1  240.50   13.80
  -1  17  -1  220.47   12.41
  -1  17  -1  221.03   12.53
  -1 -17   1  200.74   13.46
  -1  17  -1  217.50   12.46
   1  17   1  221.34   12.37
   1 -17  -1  221.05   13.90
  -1 -17   1  226.97   13.25
  -1 -17   1  219.09   12.48
   1  17   1  220.52   12.36
   1  17   1  212.38   12.31
  -1 -17   1  219.18   13.04
  -1 -17   1  200.81   14.22
   1 -17  -1  221.14   12.46
  -1  17  -1  222.77   12.40
  -1 -17   1  219.28   13.21
   1  17   1  182.18   13.83
  -1  17  -1  219.49   12.50
  -1  17  -1  222.36   12.63
  -3 -17  -1  111.58   10.29
   3  17  -1  122.81    7.34
  -3  17   1  127.37    8.02
  -3  17   1  133.03   10.92
   3  17  -1  127.25    7.58
  -3  17   1  125.60    7.83
  -3  17   1  131.10   10.05
   3  17  -1  136.34   13.47
   3 -17   1  135.48   10.07
   3  17  -1  122.25    7.31
  -3 -17  -1  121.11    9.25
  -3  17   1  124.41    7.45
  -3  17   1  120.44    7.47
  -3 -17  -1  136.97   11.14
   3 -17   1  123.11    7.75
   3  17  -1  126.18    7.28
  -3 -17  -1  123.98    8.03
  -3  17   1  125.84    7.89
   3  17  -1  129.60    7.71
  -3  17   1  118.09   10.30
  -3 -17  -1  120.03    9.54
   3 -17   1  123.37    7.69
   3 -17   1  128.56    8.00
   3 -17   1  120.64   10.34
  -3  17   1  126.34    7.85
   3  17  -1  126.79    7.59
  -3 -17  -1  134.74   11.29
  -3 -17  -1  131.90    7.97
  -3 -17  -1  111.98   11.73
  -3  17   1  121.08    7.60
   3  17  -1  119.95    7.53
   3 -17   1  120.14    9.86
   3 -17  -1  125.79    8.01
   3  17   1  128.12    7.49
  -3 -17   1  107.44   13.53
   3  17   1  120.31    7.17
  -3  17  -1  123.18    9.16
  -3 -17   1  114.09    7.93
   3 -17  -1  125.85   10.43
  -3  17  -1  135.72   10.68
   3  17   1  123.93   11.34
  -3 -17   1  122.09    8.10
  -3 -17   1  122.59    8.80
  -3  17  -1  129.16    7.76
  -3  17  -1  124.12    7.62
  -3  17  -1  115.56    9.34
  -3  17  -1  123.54    7.63
  -3  17  -1  131.39    7.94
   3  17   1  127.99    7.61
   3 -17  -1  131.69   10.15
   3 -17  -1  126.90    7.63
   3 -17  -1  126.29    7.65
   3  17   1  128.68   11.48
   3  17   1  118.04    7.40
  -3 -17   1  125.71    8.67
  -3 -17   1  119.59   12.97
   3 -17  -1  123.88   10.53
   3  17   1  113.09    7.45
   3  17   1  125.95    7.48
  -5 -17  -1   54.32    4.83
  -5  17   1   50.18    3.99
  -5  17   1   48.79    4.38
   5  17  -1   48.47    4.13
   5  17  -1   51.70    3.60
   5 -17   1   52.56    3.83
   5 -17   1   51.96    4.11
   5 -17   1   56.10    4.17
  -5 -17  -1   47.63    5.58
   5 -17   1   47.91    4.41
  -5  17   1   42.14    4.12
  -5 -17  -1   52.61    5.22
  -5 -17  -1   48.00    4.62
  -5  17   1   48.65    3.65
   5  17  -1   48.54    4.00
   5  17  -1   43.55    3.68
   5  17  -1   53.65    3.83
   5  17  -1   47.86    3.99
  -5 -17   1   49.62    5.37
   5  17   1   52.09    3.89
  -5  17  -1   53.10    3.86
  -5  17  -1   45.26    4.35
   5  17   1   46.80    4.02
   5  17   1   50.61    3.87
   5 -17  -1   49.11    4.56
   5  17   1   51.58    4.20
   5 -17  -1   50.93    4.25
   5  17   1   51.20    3.87
  -5 -17   1   55.65    4.42
   5 -17  -1   46.27    4.06
  -5  17  -1   50.20    4.71
  -5 -17   1   49.28    4.46
  -5  17  -1   50.46    3.83
  -5 -17   1   54.55    5.05
   5 -17  -1   49.84    4.06
  -7  17   1   17.28    2.43
   7 -17   1   19.48    2.97
  -7 -17  -1   18.47    4.48
   7  17  -1   20.77    2.74
   7 -17   1   22.10    2.78
   7 -17   1   19.44    2.66
   7  17  -1   15.45    2.51
   7  17  -1   19.39    3.18
   7  17  -1   18.91    2.81
  -7  17   1   18.03    3.17
  -7 -17  -1   18.33    2.96
   7 -17  -1   21.48    2.52
   7  17   1   16.22    2.38
  -7 -17   1   20.91    2.98
   7 -17  -1   21.18    2.56
   7  17   1   18.75    2.71
   7  17   1   15.02    3.59
   7 -17  -1   15.42    2.97
  -7  17  -1   13.65    2.19
  -7 -17   1   17.79    4.51
   7  17   1   16.64    2.29
   7 -17  -1   25.75    3.38
  -7  17  -1   24.44    3.41
   7  17   1   22.56    2.95
  -7 -17   1   19.50    3.45
  -7  17  -1   21.44    2.67
   0  18   1   49.66    3.16
   0  18  -1   53.53    3.27
   0  18   1   51.38    3.22
   0 -18  -1   49.62    4.46
   0 -18   1   51.29    3.82
   0 -18   1   57.82    4.25
   0 -18  -1   53.07    4.85
   0 -18  -1   54.65    3.56
   0  18   1   49.49    3.21
   0 -18  -1   52.18    4.75
   0  18   1   49.13    4.74
   0 -18  -1   56.20    3.86
   0  18  -1   51.86    3.34
   0 -18   1   46.07    3.89
   0 -18   1   54.96    3.68
   0  18  -1   58.75    4.15
   0 -18   1   50.58    3.26
   0 -18   1   49.10    3.12
   0 -18  -1   50.84    3.33
   0  18  -1   50.05    3.65
   0  18  -1   52.61    3.29
   0 -18   1   54.04    3.09
   0  18   1   52.05    3.24
   0  18  -1   52.99    3.34
   0  18   1   51.85    3.52
   0  18  -1   58.91    3.48
   0 -18   1   53.28    3.55
   0 -18  -1   52.05    3.29
   0 -18   1   51.81    3.95
   0 -18   1   50.82    3.09
  -2  18   1   38.50    5.57
  -2  18   1   38.95    2.64
  -2 -18  -1   40.69    2.83
  -2 -18  -1   43.83    4.88
   2 -18   1   36.48    2.90
   2 -18   1   32.48    4.11
   2 -18   1   33.46    4.53
   2  18  -1   42.61    2.67
   2  18  -1   39.06    2.64
  -2  18   1   43.18    3.03
   2 -18   1   41.21    2.62
  -2 -18  -1   38.62    4.26
   2  18  -1   39.25    2.78
   2 -18   1   42.98    2.99
   2  18  -1   35.81    4.79
   2  18  -1   39.75    2.48
  -2  18   1   39.19    2.65
  -2 -18  -1   38.96    2.73
   2 -18   1   40.77    2.79
  -2 -18  -1   41.79    5.36
  -2  18   1   41.76    3.03
   2  18  -1   40.26    2.62
   2  18  -1   39.01    2.51
   2  18  -1   40.42    2.87
   2 -18   1   39.00    3.81
  -2 -18  -1   38.20    4.97
  -2  18   1   39.89    2.86
   2  18  -1   37.88    6.15
  -2  18   1   41.13    2.81
  -2 -18  -1   38.86    4.58
  -2 -18  -1   30.59    4.01
  -2  18  -1   41.62    2.71
  -2 -18   1   41.78    4.27
   2  18   1   39.34    2.37
  -2  18  -1   38.49    2.71
   2  18   1   39.79    2.56
   2 -18  -1   41.05    2.72
  -2 -18   1   34.54    5.95
   2  18   1   42.79    2.72
  -2 -18   1   45.08    4.02
  -2 -18   1   40.40    3.70
  -2  18  -1   39.78    2.79
   2 -18  -1   34.08    4.55
   2 -18  -1   36.64    2.64
  -2  18  -1   42.92    4.91
   2 -18  -1   41.96    5.11
   2  18   1   38.98    5.35
  -2 -18   1   33.27    2.80
  -2  18  -1   38.24    2.67
  -2  18  -1   34.75    3.39
  -2 -18   1   42.77    2.90
  -2 -18   1   40.50    4.47
  -2 -18   1   38.76    5.90
   2  18   1   39.89    2.59
   2  18   1   26.83    4.43
   2  18   1   40.69    2.78
   2  18   1   38.65    2.59
  -2  18  -1   37.63    3.60
  -2 -18   1   36.88    2.74
   2 -18  -1   34.69    4.25
  -2  18  -1   40.48    3.17
   4  18  -1   23.75    2.20
  -4  18   1   19.78    2.30
   4  18  -1   19.63    1.74
  -4  18   1   20.08    1.86
   4 -18   1   22.53    2.10
   4  18  -1   17.79    2.24
  -4 -18  -1   21.73    2.56
   4 -18   1   23.19    2.41
  -4 -18  -1   20.02    3.41
  -4  18   1   20.76    2.60
   4 -18   1   22.63    2.55
  -4 -18  -1   20.40    9.76
   4 -18   1   16.95    2.41
  -4 -18  -1   18.28   10.20
   4  18  -1   20.37    2.01
   4  18  -1   22.78    1.88
  -4 -18  -1   17.87    2.70
  -4 -18  -1   25.61    4.15
  -4  18   1   23.15    2.49
   4  18  -1   20.10    2.07
  -4  18   1   16.50    2.11
   4  18   1   19.41    1.72
  -4  18  -1   25.14    2.23
   4  18   1   20.41    1.95
   4  18   1   22.02    2.21
  -4  18  -1   23.98    2.83
  -4 -18   1   21.84    3.56
   4 -18  -1   21.05    2.87
  -4  18  -1   18.09    2.24
  -4 -18   1   22.97    3.31
   4  18   1   21.70    2.08
   4  18   1   21.09    1.95
  -4 -18   1   24.59    2.68
   4 -18  -1   18.86    2.04
  -4  18  -1   20.69    2.07
  -4 -18   1   25.43    2.69
   4  18   1   25.06    2.05
  -4  18  -1   19.55    2.14
   4 -18  -1   20.82    2.15
   4  18   1   12.46    8.86
   6  18  -1    6.73    1.72
  -6  18   1   11.65    1.85
   6 -18   1   14.51    2.47
   6 -18   1    6.42    1.44
  -6  18   1    8.73    2.56
  -6  18   1    7.32    2.10
   6  18  -1    7.88    2.33
  -6 -18  -1    8.78    3.26
  -6 -18  -1    8.09    2.12
   6  18  -1    1.36    1.60
  -6 -18  -1    5.36    2.34
   6  18  -1    7.44    1.71
   6  18  -1    6.95    1.89
   6 -18   1    8.21    1.87
   6 -18   1    6.08    1.64
  -6 -18  -1    9.67    3.10
  -6 -18   1    9.15    2.14
  -6  18  -1   10.63    2.33
  -6 -18   1    6.97    3.07
   6  18   1   11.83    2.40
   6 -18  -1    7.41    1.83
  -6 -18   1    9.11    2.28
   6  18   1    9.96    1.73
   6 -18  -1    8.96    1.83
   6 -18  -1    6.66    1.70
   6 -18  -1   11.27    2.68
   6  18   1    6.86    1.73
  -6  18  -1    9.55    1.74
   6  18   1    7.92    1.72
   6  18   1    7.74    1.93
  -6 -18   1    6.24    3.18
  -6  18  -1   10.44    1.75
  -1  19   1    9.59    0.93
   1 -19   1    9.92    1.32
   1  19  -1    8.16    1.92
  -1 -19  -1    8.82    0.93
   1 -19   1    9.18    1.55
   1  19  -1    9.82    0.96
   1 -19   1    8.62    1.20
  -1 -19  -1    8.69    2.17
   1  19  -1   10.38    1.07
   1  19  -1    9.71    0.91
  -1 -19  -1   17.86    2.44
   1 -19   1    8.23    0.73
   1 -19   1    9.73    1.62
   1  19  -1    6.82    3.06
  -1 -19  -1   12.65    1.83
   1  19  -1    9.65    0.99
  -1 -19  -1    9.15    2.18
  -1  19   1    9.25    0.89
   1 -19   1    8.96    1.10
   1  19  -1    7.47    0.81
  -1 -19  -1    8.85    0.70
  -1  19   1   10.74    0.96
  -1 -19  -1   12.63    2.58
  -1 -19  -1    8.38    0.97
   1 -19   1   12.27    1.79
  -1  19   1   11.24    1.01
  -1  19  -1    8.07    1.33
  -1 -19   1    8.43    1.58
  -1  19  -1   10.90    1.74
   1  19   1   11.09    2.38
  -1 -19   1   10.08    1.79
  -1 -19   1    8.49    2.72
   1  19   1   10.42    1.18
  -1 -19   1   13.09    3.18
   1  19   1    8.00    0.82
   1  19   1    9.74    0.86
   1  19   1    8.64    0.71
  -1  19  -1    9.52    1.37
   1  19   1    7.91    0.84
  -1  19  -1   10.73    1.05
   1  19   1   10.03    2.38
  -1 -19   1    9.31    0.86
   1 -19  -1    9.13    1.32
   1 -19  -1    9.48    0.93
   1  19   1    9.17    0.92
   1 -19  -1    7.90    2.21
  -1  19  -1   10.05    0.94
  -1  19  -1    8.65    0.90
  -1 -19   1    8.68    0.94
   1 -19  -1   12.27    2.54
   1 -19  -1    7.55    2.14
  -1 -19   1    9.49    0.88
  -1 -19   1    7.31    1.04
  -1  19  -1    9.49    1.30
  -1  19  -1    8.65    0.95
  -1 -19   1    7.83    1.89
   1  19   1    4.29    2.04
  -1 -19   1   10.44    1.76
   3 -19   1   10.05    4.13
  -3  19   1    7.39    1.02
  -3  19   1    2.25    3.57
  -3  19   1    1.91    3.45
   3  19  -1    4.43    0.82
  -3 -19  -1    5.67    2.49
   3  19  -1    4.92    1.04
   3  19  -1    5.19    0.76
   3  19  -1    5.47    4.91
  -3 -19  -1    1.60    5.06
  -3 -19  -1    5.82    1.28
   3  19  -1    4.98    0.93
  -3 -19  -1    6.21    1.20
  -3  19   1    8.09    1.36
   3  19  -1    5.44    0.74
  -3  19   1    8.83    1.36
  -3  19   1    4.58    1.18
  -3 -19  -1    9.10    3.91
  -3  19   1    5.24    4.10
  -3  19   1    5.89    1.06
   3  19  -1    6.01    1.05
  -3 -19  -1    8.36    4.87
   3 -19   1    5.09    1.04
   3 -19   1    5.86    1.25
   3  19  -1    5.63    0.88
  -3  19   1    6.79    1.37
  -3  19   1    5.61    0.85
   3 -19   1    5.93    3.77
  -3 -19  -1    7.22    3.96
   3 -19   1    0.82    2.93
   3 -19   1    6.22    1.17
  -3 -19  -1    5.50    2.37
   3 -19  -1    6.76    1.11
  -3 -19   1    8.14    2.16
  -3 -19   1    6.20    1.31
  -3  19  -1    5.78    2.68
   3  19   1    5.40    0.98
   3  19   1    5.06    0.79
  -3 -19   1   -3.56    3.59
  -3 -19   1    5.11    1.36
  -3  19  -1    5.38    4.43
   3  19   1    4.77    0.84
  -3  19  -1    6.68    1.09
   3 -19  -1    6.91    3.63
   3 -19  -1    5.81    3.60
   3 -19  -1    5.00    0.86
  -3  19  -1    5.28    1.19
   3  19   1    5.86    0.64
   3  19   1    4.50    0.77
   3  19   1    3.31    0.74
   3 -19  -1    5.85    1.28
   3  19   1    5.80    4.38
  -3  19  -1    6.43    1.10
   3 -19  -1    5.94    4.04
   3  19   1    7.04    1.09
  -3  19  -1    4.72    0.93
  -3 -19   1    5.21    1.82
  -3 -19   1   -1.92    3.85
   3  19   1    7.44    4.80
  -3  19  -1    6.99    2.86
  -5 -19  -1   -0.78    2.48
  -5 -19  -1    1.47    2.31
   5 -19   1    5.73    1.68
   5  19  -1    2.67    1.14
  -5  19   1    3.33    1.63
  -5 -19  -1    2.65    1.60
   5 -19   1    3.71    1.45
   5  19  -1    2.92    1.15
   5 -19   1    1.40    1.15
  -5  19   1    1.08    1.60
   5  19  -1    2.28    1.18
   5  19  -1    3.55    1.80
   5 -19   1    3.28    1.02
  -5  19   1    1.94    1.11
  -5  19   1    2.60    0.99
   5  19  -1    1.63    1.13
   5  19  -1    3.61    1.22
  -5 -19  -1   -0.36    1.83
  -5  19   1    3.32    1.89
   5 -19  -1    3.54    1.23
  -5 -19   1    4.22    1.60
   5  19   1    5.01    1.73
   5  19   1    1.65    0.99
  -5 -19   1    5.99    2.36
  -5 -19   1    1.25    1.55
  -5 -19   1    0.23    2.31
  -5  19  -1    4.29    1.15
   5 -19  -1    1.00    1.56
  -5  19  -1    1.98    1.15
   5  19   1    2.89    1.21
   5  19   1    3.39    1.16
  -5  19  -1    5.28    1.62
   5 -19  -1    0.78    1.35
   5 -19  -1    0.58    1.18
   5  19   1    2.67    1.24
  -7 -19  -1    1.80    2.00
  -7  19   1    2.23    1.57
   7 -19   1    2.21    1.30
  -7 -19  -1   -0.32    3.69
   7 -19   1    1.82    1.28
   7  19  -1    1.94    1.65
  -7  19   1    3.47    2.38
   7  19  -1    0.59    1.64
   7 -19   1    2.46    1.88
  -7  19  -1    0.75    1.36
   7 -19  -1    2.47    1.95
  -7 -19   1   -2.24    3.71
   7  19   1    0.93    1.56
   7  19   1   -0.09    1.47
  -7  19  -1    2.61    1.49
  -7  19  -1    2.58    2.33
  -7 -19   1    2.43    1.91
   7 -19  -1    1.25    1.29
   7  19   1   -1.46    1.52
  -7 -19   1    1.78    2.41
   7 -19  -1    0.41    1.43
   0  20  -1    0.19    1.50
   0 -20   1   -0.21    0.27
   0 -20  -1   -1.57    1.63
   0 -20  -1    0.38    1.73
   0 -20   1   -1.76    1.43
   0 -20  -1   -0.17    0.33
   0  20  -1    0.30    0.37
   0  20  -1    0.11    0.31
   0  20  -1    0.04    0.52
   0  20   1    0.90    0.32
   0 -20   1   -0.97    0.92
   0 -20  -1    1.86    1.76
   0 -20   1    0.50    0.99
   0 -20   1   -0.01    0.23
   0  20   1    0.02    0.31
   0  20  -1    0.13    1.16
   0  20  -1    0.35    0.39
   0  20   1    0.25    0.53
   0 -20  -1   -0.35    0.52
   0 -20   1   -0.64    0.94
   0 -20  -1    1.05    0.80
   0 -20   1    0.07    1.57
   0 -20   1   -0.05    0.32
   0  20   1    0.03    0.32
   0 -20   1    0.25    0.22
   0  20  -1    0.46    0.31
   0 -20   1    0.55    1.09
   0 -20  -1   -0.14    0.30
   0  20   1    0.18    0.36
  -2 -20  -1    0.64    0.44
  -2  20   1    0.64    0.40
   2  20  -1    0.56    0.33
   2  20  -1    0.14    0.35
  -2 -20  -1   -0.33    0.41
  -2  20   1   -0.08    0.45
  -2 -20  -1    1.39    1.51
  -2  20   1    0.04    0.45
  -2 -20  -1    2.59    1.65
   2  20  -1   -5.05    4.24
   2 -20   1    0.31    2.41
   2  20  -1    0.48    0.46
   2 -20   1   -0.55    1.73
   2 -20   1    0.20    2.28
  -2 -20  -1    0.62    3.23
  -2 -20  -1    1.72    2.90
   2  20  -1    0.20    0.48
  -2  20   1   -0.21    0.50
  -2  20   1   -0.23    0.59
  -2 -20  -1   -2.10    2.24
   2  20  -1   -2.51    2.30
  -2 -20  -1    1.43    2.33
   2 -20   1    0.62    0.63
  -2  20   1    0.61    0.85
   2 -20   1    0.07    0.38
   2  20  -1    0.39    0.38
   2  20   1    3.21    3.02
   2  20   1    0.14    0.26
  -2  20  -1    0.47    0.71
   2  20   1    0.27    0.32
  -2 -20   1    0.27    0.86
  -2 -20   1   -1.21    2.06
   2  20   1    0.20    0.55
   2 -20  -1    3.23    2.46
   2 -20  -1    1.39    2.35
  -2 -20   1    0.00    0.47
  -2  20  -1   -0.16    0.36
  -2  20  -1    0.37    0.53
  -2  20  -1    0.22    1.48
  -2 -20   1    1.84    4.41
   2  20   1   -0.05    0.31
  -2 -20   1    0.59    2.05
   2 -20  -1    0.91    0.74
   2 -20  -1   -0.10    0.35
  -2  20  -1    0.40    1.43
  -2  20  -1    0.45    0.37
  -2 -20   1    0.78    1.47
   2  20   1   -1.71    2.97
  -2  20  -1    0.26    0.49
   2  20   1    0.25    0.38
   2  20   1   -0.08    0.44
  -2 -20   1   -1.14    1.10
  -2 -20   1   -3.55    4.24
  -2 -20   1    0.40    0.44
   2 -20  -1    1.32    2.17
  -2  20  -1   -0.54    2.84
  -4  20   1    1.32    1.26
  -4 -20  -1    2.17    2.23
   4  20  -1    1.15    1.37
   4  20  -1    0.85    0.72
   4  20  -1   -0.68    0.68
   4 -20   1   -0.25    1.05
  -4  20   1   -0.33    1.05
   4  20  -1    1.34    0.69
   4 -20   1   -0.12    0.98
   4 -20   1    0.97    0.76
  -4  20   1    0.64    0.65
  -4  20   1    0.29    1.31
  -4 -20  -1    0.37    1.59
  -4 -20  -1    0.84    1.19
   4  20  -1   -1.07    0.84
  -4  20   1    0.73    0.86
  -4 -20  -1   -0.59    2.18
   4  20  -1   -0.70    0.63
  -4  20  -1   -0.05    0.75
   4  20   1    1.23    0.73
   4 -20  -1    0.62    0.75
   4 -20  -1    0.65    1.05
  -4 -20   1    0.69    1.24
   4  20   1   -0.02    0.68
  -4  20  -1    0.55    0.81
  -4  20  -1    2.24    1.20
  -4 -20   1    0.88    1.82
   4 -20  -1   -0.72    0.88
  -4 -20   1    0.26    1.47
  -4 -20   1   -0.60    1.23
   4  20   1   -0.30    0.66
   4  20   1   -1.24    0.63
  -4  20  -1    0.13    0.62
  -6 -20  -1    1.60    3.03
   6 -20   1    0.58    1.24
   6  20  -1    1.24    1.35
  -6 -20  -1    3.95    3.05
   6 -20   1    0.50    1.42
   6  20  -1    0.63    1.40
   6 -20   1    1.10    1.71
  -6 -20  -1   -0.21    1.77
  -6  20   1   -0.28    1.96
  -6  20   1    1.08    1.29
   6  20  -1    0.92    1.66
   6 -20   1   -2.23    0.93
   6  20  -1    1.52    1.54
   6  20  -1   -1.42    2.20
  -6 -20   1    2.22    2.83
   6  20   1   -1.52    1.39
  -6 -20   1    1.65    1.63
  -6  20  -1    0.63    1.23
   6 -20  -1   -0.14    1.41
   6 -20  -1    0.32    1.33
  -6  20  -1    1.99    1.94
   6 -20  -1   -1.41    1.57
   6  20   1    1.39    1.33
  -6  20  -1    0.30    1.01
   6  20   1    1.01    1.31
  -6 -20   1    1.17    2.00
   6  20   1   -0.07    1.40
  -6 -20   1   -1.10    2.64
   6 -20  -1    1.49    1.52
   1  21  -1    0.77    0.60
  -1 -21  -1    1.21    2.07
   1  21  -1    0.24    0.31
  -1 -21  -1    0.40    0.27
  -1  21   1    0.09    0.41
   1  21  -1    0.38    0.37
  -1 -21  -1    0.85    1.92
  -1 -21  -1   -0.92    1.92
  -1  21   1    0.78    2.21
   1 -21   1    0.35    0.27
   1 -21   1    0.37    0.87
  -1 -21  -1    0.70    0.41
   1 -21   1   -0.13    0.77
   1  21  -1    0.52    0.41
   1 -21   1   -0.18    0.77
   1  21  -1    0.00    0.37
   1  21  -1    1.07    1.71
  -1  21   1   -2.05    2.03
   1 -21   1   -0.46    1.35
   1 -21   1   -1.32    1.28
  -1  21   1    1.16    0.55
   1 -21   1    1.58    1.37
  -1 -21  -1   -0.22    0.38
   1  21  -1   -1.57    3.01
  -1  21   1    0.25    0.34
  -1 -21  -1    0.00    1.17
  -1  21   1    0.89    2.08
  -1 -21  -1    0.27    0.93
  -1  21   1    0.65    0.42
  -1 -21   1   -0.50    1.42
   1  21   1    0.42    0.31
   1  21   1    2.62    2.13
  -1  21  -1   -0.04    0.37
  -1 -21   1    1.72    1.26
   1  21   1    1.45    0.64
  -1 -21   1    1.14    1.48
   1  21   1   -0.33    0.36
   1 -21  -1    0.95    1.94
  -1  21  -1   -0.62    1.41
   1  21   1    0.64    0.33
   1 -21  -1    1.50    1.84
  -1 -21   1    0.58    0.32
   1  21   1    0.35    0.32
   1  21   1   -1.11    2.14
  -1 -21   1    0.01    0.34
  -1  21  -1   -0.13    0.48
  -1  21  -1    0.67    0.37
   1  21   1   -0.08    0.28
  -1  21  -1   -0.13    0.36
  -1  21  -1    1.78    1.01
  -1  21  -1    0.97    0.97
   1 -21  -1    0.75    0.81
  -1 -21   1    0.60    0.42
   1 -21  -1    0.04    0.31
  -1  21  -1   -0.19    0.61
  -1 -21   1    0.26    2.80
  -1 -21   1   -2.06    1.36
   1 -21  -1    0.60    1.90
   1  21   1    1.90    2.00
  -1 -21   1   -1.18    2.90
   3  21  -1    0.18    0.45
  -3 -21  -1    0.53    2.05
  -3 -21  -1    1.02    4.28
   3 -21   1   -0.52    0.71
  -3  21   1   -0.10    0.63
   3 -21   1   -0.05    3.76
   3 -21   1    1.03    3.25
  -3 -21  -1    0.54    4.19
  -3  21   1    0.06    0.90
  -3  21   1    1.16    0.70
  -3 -21  -1    0.82    0.71
   3  21  -1   -0.06    0.70
   3 -21   1    0.28    0.62
   3  21  -1    0.57    0.82
   3  21  -1   -0.12    0.50
  -3  21   1    0.13    0.69
   3 -21   1    3.61    4.18
   3  21  -1    0.63    0.74
   3  21  -1    0.12    0.46
   3 -21   1    0.59    0.79
  -3  21   1    0.51    1.11
   3  21  -1   -0.09    0.48
  -3 -21  -1   -3.59    1.84
  -3  21   1    0.09    0.46
   3  21  -1   -1.44    4.90
  -3 -21   1   -3.39    3.88
   3  21   1    0.47    0.52
   3 -21  -1    0.21    0.52
   3  21   1   -0.45    0.37
  -3  21  -1    1.23    4.66
   3  21   1    0.18    0.49
   3 -21  -1    0.74    3.78
   3 -21  -1   -0.13    0.78
  -3  21  -1   -0.62    0.50
   3  21   1    0.21    4.93
  -3  21  -1    2.56    2.85
  -3  21  -1   -0.86    0.65
  -3  21  -1   -0.47    2.79
  -3  21  -1   -0.01    0.53
  -3  21  -1    0.27    0.75
  -3 -21   1   -4.56    4.01
  -3 -21   1   -0.81    1.36
   3 -21  -1   -0.81    3.41
   3  21   1    0.19    0.49
   3  21   1   -0.18    0.45
   3 -21  -1   -5.79    3.52
   3 -21  -1   -0.10    0.62
   3  21   1   -0.53    0.72
  -3 -21   1   -1.03    1.15
   3  21   1    0.94    0.65
  -3 -21   1   -0.24    0.86
  -3 -21   1   -2.25    1.46
   5  21  -1    0.05    1.17
  -5  21   1    1.72    1.07
   5  21  -1    0.77    1.15
   5  21  -1   -2.36    1.87
   5 -21   1   -0.57    0.83
   5  21  -1    0.35    1.12
   5 -21   1   -1.59    1.21
   5  21  -1   -0.64    1.16
  -5 -21  -1    1.26    2.06
  -5 -21  -1    1.76    2.21
   5 -21   1    1.03    1.49
  -5 -21  -1   -1.41    1.53
  -5 -21  -1    1.92    2.52
   5 -21   1    1.56    1.27
   5  21  -1    0.83    1.16
  -5  21   1   -1.18    1.65
  -5  21   1    1.07    1.02
   5  21   1    1.67    1.11
  -5  21  -1    1.05    0.95
   5  21   1    0.98    1.05
  -5  21  -1   -0.60    1.51
   5  21   1    1.66    1.13
   5  21   1   -0.66    1.02
   5 -21  -1   -0.38    1.29
  -5 -21   1   -0.02    1.41
  -5 -21   1    0.67    1.75
   5 -21  -1    0.34    1.03
  -5 -21   1    1.39    2.10
  -5 -21   1   -0.06    2.15
  -5  21  -1    0.89    0.90
   5 -21  -1    1.68    1.52
  -7 -21  -1    2.97    2.22
  -7 -21  -1    1.04    3.90
   7 -21   1    1.08    1.28
  -7  21   1   -4.93    2.25
   7  21  -1    1.27    1.78
   7 -21   1    0.19    1.34
   7 -21   1    1.50    1.95
   7  21  -1    1.41    1.63
  -7  21   1    2.11    1.56
   7  21   1    2.72    1.72
  -7  21  -1   -1.77    2.38
   7 -21  -1    2.32    1.32
   7 -21  -1    0.75    1.56
   7  21   1    0.78    1.76
  -7  21  -1    1.67    1.49
   7  21   1    2.17    2.22
  -7  21  -1   -1.28    1.32
   7  21   1    0.11    1.61
  -7 -21   1    2.59    3.92
   7 -21  -1   -2.56    1.97
  -7 -21   1    0.91    1.92
  -7 -21   1    5.40    2.57
   0 -22  -1    0.67    0.67
   0  22   1    0.48    0.37
   0 -22  -1    1.27    0.43
   0  22  -1   -0.92    1.33
   0  22   1    1.10    0.45
   0  22  -1    1.25    0.44
   0  22   1   -0.41    1.96
   0 -22  -1    0.75    1.02
   0 -22   1    0.43    0.29
   0 -22   1    0.15    0.25
   0  22   1   -0.20    2.40
   0 -22   1    1.73    1.77
   0 -22   1    1.72    1.20
   0 -22   1   -0.94    1.16
   0  22  -1    0.86    0.47
   0  22  -1    0.82    0.57
   0  22   1   -1.08    2.48
   0  22  -1    0.72    0.38
   0 -22  -1    0.25    0.36
   0  22   1    0.59    0.37
   0  22  -1   -0.30    0.51
   0 -22   1    0.25    1.21
   0 -22  -1    0.74    1.94
   0  22  -1   -1.47    1.86
   0 -22  -1    3.28    2.01
   0  22   1    0.39    0.42
   0 -22  -1    2.42    2.18
   0 -22   1   -1.54    1.84
   0 -22   1    0.03    0.36
   0 -22   1    0.64    0.30
   0 -22   1   -0.02    1.14
   2 -22   1    0.79    0.49
  -2  22   1    1.02    0.56
  -2  22   1    0.87    0.75
  -2 -22  -1    0.50    0.52
  -2 -22  -1   -0.27    1.69
   2  22  -1    0.41    0.52
  -2  22   1    0.43    0.47
   2  22  -1    0.29    0.54
   2 -22   1    5.61    2.73
  -2  22   1    0.47    3.14
   2  22  -1    0.77    0.38
  -2 -22  -1    2.72    2.87
   2  22  -1    0.63    0.40
  -2 -22  -1    5.80    3.10
  -2 -22  -1    0.64    0.50
  -2  22   1    1.47    0.78
  -2  22   1   -0.23    2.73
  -2 -22  -1    0.39    1.74
   2 -22   1    2.53    2.79
  -2  22   1    1.27    0.92
   2  22  -1    0.16    0.41
  -2 -22  -1    1.71    3.97
   2  22  -1   -0.17    2.77
   2 -22   1   -2.58    1.96
  -2  22   1    3.67    3.02
  -2  22   1    0.51    0.51
  -2 -22  -1   -1.49    3.54
   2 -22  -1    1.01    0.48
   2  22   1    0.62    0.83
  -2 -22   1   -2.20    1.33
  -2  22  -1    0.27    0.51
   2 -22  -1    3.24    2.84
   2  22   1    0.09    0.70
  -2  22  -1   -0.68    1.62
   2  22   1    1.00    0.56
  -2  22  -1   -0.47    3.02
  -2 -22   1    0.67    1.09
   2 -22  -1    4.73    2.80
  -2 -22   1    1.35    1.84
  -2  22  -1    2.31    1.75
  -2  22  -1    0.67    0.61
   2  22   1    0.92    0.40
  -2 -22   1   -2.30    2.31
  -2 -22   1    2.36    2.41
   2  22   1    1.38    0.50
  -2  22  -1    1.16    0.51
   2 -22  -1    2.08    2.69
  -2  22  -1    0.64    0.77
  -2  22  -1    0.97    0.46
  -2 -22   1    0.83    0.53
  -2 -22   1    0.77    0.52
   2  22   1   -2.85    2.89
   2 -22  -1   -0.69    0.76
   2  22   1    0.19    3.97
   2  22   1    0.49    0.39
   4  22  -1    1.26    0.73
   4  22  -1    1.22    0.74
   4 -22   1    0.53    1.17
   4  22  -1    0.88    0.77
  -4 -22  -1    1.67    2.24
   4  22  -1    0.45    1.45
  -4  22   1    1.71    0.77
  -4  22   1    0.92    1.05
  -4  22   1   -1.11    1.32
   4  22  -1    0.76    1.07
  -4  22   1   -1.44    1.44
   4 -22   1    0.27    1.07
  -4 -22  -1    0.22    1.30
   4  22  -1   -0.57    0.76
  -4 -22  -1    7.08    2.92
   4 -22   1    0.55    0.85
  -4  22  -1    0.60    0.93
   4  22   1    2.20    1.13
   4 -22  -1    0.15    0.73
   4  22   1   -0.64    0.72
  -4  22  -1    0.23    0.84
  -4  22  -1    0.14    0.69
   4  22   1    0.06    0.70
  -4  22  -1    1.88    1.14
   4 -22  -1    0.08    0.94
  -4 -22   1    0.96    1.93
  -4 -22   1    1.15    1.25
  -4 -22   1   -1.29    1.67
   4 -22  -1   -0.64    1.05
  -4 -22   1    0.37    1.40
   4  22   1    2.60    0.79
  -6 -22  -1    0.62    3.01
  -6  22   1   -0.83    1.24
  -6  22   1   -0.24    2.12
   6 -22   1    0.58    1.78
   6 -22   1    0.53    1.56
  -6 -22  -1   -3.45    2.00
   6  22  -1    1.54    1.44
   6  22  -1    0.75    1.66
  -6 -22  -1   -0.06    3.05
   6  22  -1   -2.31    1.49
   6 -22   1    0.63    0.99
   6 -22   1    1.01    1.38
   6  22   1   -0.53    1.41
   6  22   1    0.04    1.48
  -6 -22   1    0.94    3.14
   6  22   1    1.86    2.10
  -6 -22   1   -0.44    1.57
   6  22   1   -0.41    1.38
   6 -22  -1    0.00    1.40
  -6  22  -1    2.78    2.17
   6 -22  -1   -2.23    1.73
  -6  22  -1    0.99    1.15
   6 -22  -1   -0.70    1.20
   6 -22  -1    5.28    1.92
   6  22   1    0.96    1.34
  -6 -22   1    0.62    2.14
  -6  22  -1    1.24    1.24
  -6 -22   1   -3.20    2.61
  -1  23   1   13.74    1.27
  -1  23   1   15.23    1.29
  -1 -23  -1    9.56    3.19
   1  23  -1   12.96    2.65
  -1 -23  -1   11.75    2.87
  -1  23   1   13.71    3.03
  -1 -23  -1   12.03    2.41
  -1  23   1   11.33    1.17
  -1  23   1   14.33    1.64
  -1 -23  -1   12.59    1.29
   1  23  -1   12.09    1.29
  -1  23   1   11.36    1.45
  -1 -23  -1   13.52    1.31
   1 -23   1   10.58    2.13
   1 -23   1   15.50    2.29
   1 -23   1   12.74    1.02
   1  23  -1   13.84    1.24
   1  23  -1   20.97    4.43
  -1  23   1   12.62    3.24
  -1  23   1   12.85    2.85
   1  23  -1   12.77    1.40
  -1 -23  -1   16.74    3.38
  -1 -23  -1   11.12    0.91
   1 -23   1   13.52    2.08
   1  23  -1   13.11    1.17
   1 -23   1   12.04    1.48
   1 -23   1   15.28    1.81
   1  23  -1   12.51    1.12
  -1 -23  -1   12.21    1.89
  -1 -23   1   13.79    1.21
  -1 -23   1    9.77    2.11
   1  23   1   13.48    1.16
   1 -23  -1   14.97    2.98
   1 -23  -1   13.02    1.21
  -1  23  -1   15.27    1.90
  -1 -23   1    9.88    2.24
  -1 -23   1   11.87    4.15
  -1  23  -1   11.92    1.78
  -1 -23   1   13.66    1.14
  -1  23  -1   14.41    1.22
   1 -23  -1   11.99    1.21
  -1  23  -1   12.32    1.23
   1  23   1    2.94    2.41
   1 -23  -1   14.61    1.67
   1  23   1   11.97    1.21
   1  23   1   13.09    1.17
   1 -23  -1   12.45    3.06
  -1  23  -1   14.36    1.38
   1 -23  -1    9.55    3.02
  -1  23  -1   11.60    1.24
  -1  23  -1   13.90    2.26
  -1 -23   1   14.90    3.95
   1  23   1   12.51    1.51
   1  23   1   11.38    3.27
  -1 -23   1   13.97    1.31
   1  23   1   12.25    1.03
  -1 -23   1   16.52    2.80
  -1  23  -1   12.64    1.70
   1  23   1   11.45    1.12
  -1 -23   1   14.78    2.48
   3 -23   1   11.63    1.66
  -3 -23  -1    9.14    6.86
   3  23  -1    8.15    1.07
   3  23  -1    8.30    1.15
   3  23  -1    9.95    1.11
   3 -23   1    8.36    4.56
  -3  23   1   10.69    1.79
  -3  23   1    9.56    1.67
  -3 -23  -1    6.22    2.82
   3 -23   1   19.44    5.00
  -3  23   1    9.58    1.23
   3  23  -1    9.35    1.49
   3 -23   1    9.11    1.68
   3  23  -1    6.50    1.06
  -3 -23  -1   11.65    3.01
   3 -23   1   10.51    3.92
  -3  23   1   10.25    1.76
  -3  23   1    7.93    1.29
   3 -23   1    8.93    1.37
  -3 -23  -1   16.12    6.78
  -3  23   1    8.75    1.43
  -3 -23  -1   11.49    1.67
  -3  23  -1    9.23    1.35
   3  23   1    7.41    1.35
   3  23   1    8.46    1.26
  -3  23  -1   10.31    1.35
  -3 -23   1    8.21    2.29
   3  23   1   -0.92    5.17
  -3  23  -1    2.79    3.33
   3  23   1    7.84    1.07
   3 -23  -1    8.37    1.25
   3 -23  -1   10.44    1.78
  -3  23  -1   10.53    5.56
  -3  23  -1    7.83    3.36
  -3  23  -1   10.23    1.39
   3  23   1    8.62    1.14
  -3 -23   1   12.12    2.82
   3  23   1    8.85    1.17
  -3 -23   1   10.58    1.93
  -3 -23   1    7.77    1.43
  -3  23  -1   10.25    1.70
  -5 -23  -1    4.96    3.04
   5  23  -1    3.70    1.40
  -5  23   1    7.05    2.11
  -5  23   1    6.32    1.58
   5 -23   1    3.46    1.71
   5  23  -1    3.19    1.33
   5  23  -1    5.54    1.64
   5  23  -1    4.20    1.32
   5  23  -1    4.74    1.39
  -5  23   1    8.06    1.53
   5 -23   1    4.71    1.91
  -5 -23  -1    9.01    2.49
  -5 -23  -1    5.87    3.03
   5 -23   1    6.19    1.67
   5 -23   1    4.58    1.29
  -5 -23   1    7.52    2.84
   5 -23  -1    8.70    2.31
  -5  23  -1    6.56    1.51
  -5 -23   1    4.36    2.69
   5  23   1    5.81    1.46
  -5  23  -1    5.17    1.42
   5  23   1    5.58    1.84
  -5 -23   1    3.92    1.81
  -5  23  -1    7.05    2.15
   5  23   1    6.26    1.35
   5 -23  -1    4.90    1.61
  -5 -23   1    7.42    2.15
   5 -23  -1    8.23    1.79
   5  23   1    5.13    1.49
   5  23   1    5.69    1.43
   7 -23   1    1.60    1.34
  -7  23   1    0.63    2.66
   7  23  -1   -1.24    1.63
   7 -23   1    0.95    2.11
   7 -23   1    2.81    1.49
   7  23  -1    2.77    1.98
  -7  23   1    0.40    1.63
  -7 -23  -1    5.41    4.25
  -7 -23  -1    1.77    2.23
  -7 -23   1    3.04    2.73
  -7  23  -1    2.01    1.49
   7  23   1    3.29    2.54
   7 -23  -1    1.50    2.47
   7 -23  -1    4.56    1.57
   7  23   1    3.00    1.86
   7 -23  -1   -0.24    1.62
  -7 -23   1    2.06    1.95
  -7  23  -1    1.37    1.59
  -7 -23   1    6.16    4.16
   7  23   1    0.67    1.74
   7  23   1    3.55    1.90
   0  24   1   57.35    3.61
   0 -24  -1   55.80    5.56
   0 -24   1   51.91    3.30
   0  24   1   51.00    3.55
   0  24   1   59.79    5.76
   0 -24  -1   57.70    4.38
   0 -24  -1   56.41    3.88
   0  24  -1   54.44    4.53
   0 -24  -1   58.22    6.10
   0 -24   1   48.30    4.45
   0  24  -1   62.06    3.69
   0 -24   1   58.77    5.21
   0  24   1   55.18    5.44
   0  24  -1   56.98    3.84
   0 -24  -1   60.10    3.76
   0 -24  -1   59.54    5.88
   0 -24   1   54.57    3.32
   0 -24   1   56.73    3.65
   0  24   1   59.52    4.10
   0  24  -1   60.62    3.79
   0 -24   1   51.73    4.57
   0 -24   1   59.82    4.35
   0 -24  -1   54.63    3.66
   0  24   1   52.90    5.99
   0  24  -1   58.77    3.67
   0 -24   1   55.78    3.46
   0  24   1   58.73    3.67
   0  24  -1   57.80    3.80
   0 -24   1   62.05    4.52
   0  24  -1   61.10    5.54
   0  24   1   56.45    3.70
   0 -24   1   49.94    5.61
  -2  24   1   53.15    3.74
  -2  24   1   38.12    5.31
  -2  24   1   47.29    3.18
  -2 -24  -1   46.58    4.98
   2 -24   1   39.09    4.74
  -2 -24  -1   36.34    5.36
   2 -24   1   37.39    4.78
   2  24  -1   44.52    3.23
   2  24  -1   44.96    2.87
  -2 -24  -1   36.74    5.37
  -2  24   1   51.46    3.49
  -2 -24  -1   42.46    4.53
   2  24  -1   45.97    3.13
   2 -24   1   39.34    4.82
  -2  24   1   37.31    2.98
   2  24  -1   41.90    5.30
  -2 -24  -1   46.52    3.23
  -2  24   1   41.91    5.82
  -2  24   1   39.46    5.30
  -2  24   1   48.99    3.14
   2  24  -1   45.96    3.08
   2 -24   1   45.13    2.94
  -2 -24  -1   50.78    3.28
  -2  24  -1   46.25    3.20
  -2 -24   1   31.75    3.34
   2  24   1   45.02    3.12
  -2  24  -1   48.12    3.14
  -2  24  -1   41.07    4.05
   2 -24  -1   32.91    5.02
  -2 -24   1   42.75    4.64
  -2 -24   1   45.37    5.26
  -2  24  -1   41.70    3.00
  -2  24  -1   45.35    3.59
  -2  24  -1   47.65    3.24
  -2  24  -1   47.59    4.30
   2 -24  -1   46.51    3.15
  -2 -24   1   43.46    3.21
   2  24   1   43.09    3.04
   2  24   1   46.51    3.36
   2  24   1   39.14    6.37
  -2 -24   1   40.30    4.84
   2  24   1   44.69    3.00
   2 -24  -1   34.77    5.13
  -2 -24   1   44.39    3.08
  -2  24  -1   43.09    5.47
   2 -24  -1   41.14    3.14
   2  24   1   46.42    2.98
   2 -24  -1   43.37    6.21
  -2 -24   1   34.95    4.99
   2  24   1   45.52    3.01
   4 -24   1   28.80    2.62
  -4 -24  -1   24.67    4.56
   4  24  -1   30.23    2.55
   4 -24   1   28.39    3.27
   4  24  -1   24.31    2.18
  -4  24   1   24.12    3.15
  -4 -24  -1   30.35    3.30
   4 -24   1   23.84    2.99
   4  24  -1   27.21    2.49
  -4  24   1   24.08    2.32
  -4 -24  -1   22.07    4.38
   4  24  -1   23.44    2.74
   4  24  -1   26.38    2.32
  -4  24   1   31.85    2.94
  -4 -24   1   28.17    4.21
  -4  24  -1   26.43    2.67
   4  24   1   28.25    2.40
  -4  24  -1   30.58    2.79
   4  24   1   29.57    2.39
   4 -24  -1   23.05    2.52
   4 -24  -1   23.29    2.55
   4 -24  -1   27.52    3.14
   4  24   1   25.82    2.39
  -4  24  -1   29.54    2.73
  -4 -24   1   23.24    3.09
  -4  24  -1   28.46    2.70
   4  24   1   26.59    2.58
  -4 -24   1   27.70    3.16
  -4 -24   1   30.19    4.45
   4  24   1   23.03    2.58
   4  24   1   26.25    2.53
   6 -24   1   10.86    2.52
  -6 -24  -1   15.89    2.93
  -6  24   1    7.78    2.15
  -6  24   1   12.96    2.24
   6 -24   1   16.59    2.68
   6  24  -1    6.64    2.28
  -6 -24  -1    6.17    3.46
  -6  24   1   17.92    3.17
   6  24  -1   10.30    1.97
   6  24  -1    7.46    1.93
   6 -24   1   14.63    2.04
   6 -24   1   14.30    2.42
  -6 -24  -1   15.83    4.17
   6  24   1   12.17    2.02
   6  24   1   12.19    2.78
  -6 -24   1   16.91    3.05
   6  24   1   12.56    2.16
  -6 -24   1   13.24    3.60
   6  24   1   12.21    2.08
  -6  24  -1   15.91    2.24
  -6 -24   1    8.88    3.83
  -6 -24   1   12.93    2.52
   6 -24  -1    8.05    2.14
   6  24   1    9.85    2.08
  -6  24  -1   11.25    2.01
   6 -24  -1   11.68    2.21
   6 -24  -1   12.40    2.52
  -6  24  -1   12.57    2.94
   6 -24  -1    7.57    2.60
  -1 -25  -1    4.84    2.82
   1  25  -1    5.36    2.41
   1 -25   1    4.67    0.92
  -1  25   1    0.90    3.24
   1 -25   1    5.19    0.67
   1 -25   1    9.21    2.20
   1  25  -1    5.65    0.94
  -1 -25  -1    3.29    2.85
  -1  25   1    1.12    2.73
  -1  25   1    5.89    0.86
  -1 -25  -1    7.09    1.57
   1  25  -1    5.14    0.75
   1 -25   1    3.53    2.07
   1 -25   1    5.99    2.13
  -1 -25  -1    4.92    0.89
   1 -25   1    7.67    1.52
  -1  25   1    3.64    0.74
  -1  25   1    4.20    1.05
  -1 -25  -1    5.84    0.94
  -1  25   1    9.41    3.18
   1  25  -1    5.32    0.86
  -1  25   1    4.96    0.81
   1  25  -1    4.28    0.96
  -1 -25  -1    0.12    2.83
  -1 -25  -1    4.89    1.76
  -1  25   1    4.06    1.09
   1  25  -1    6.30    0.82
  -1  25  -1    8.71    2.30
  -1  25  -1    5.00    0.87
  -1 -25   1    5.79    2.23
   1  25   1    6.23    0.82
   1  25   1    7.11    0.94
   1 -25  -1    8.78    3.10
   1  25   1    4.70    0.78
   1  25   1    7.43    1.40
   1  25   1    5.14    0.77
  -1  25  -1    4.62    1.04
  -1 -25   1    5.90    0.89
   1 -25  -1    3.72    0.79
   1  25   1    5.85    1.16
  -1 -25   1    5.74    2.14
   1 -25  -1    6.78    1.02
  -1  25  -1    5.81    0.99
   1 -25  -1    6.84    1.41
   1 -25  -1    5.28    2.72
  -1 -25   1    5.45    1.02
  -1  25  -1    6.18    0.90
  -1 -25   1    5.03    1.87
  -1 -25   1    6.10    0.82
   1  25   1    4.38    0.71
  -1  25  -1    4.38    0.78
   1 -25  -1    3.24    2.71
  -1 -25   1    5.83    2.18
  -3 -25  -1    4.80    2.51
  -3 -25  -1    2.88    2.67
   3 -25   1    3.69    1.04
   3 -25   1   10.14    5.18
  -3  25   1    3.65    1.53
   3  25  -1    4.55    1.14
   3 -25   1   -0.78    3.95
   3 -25   1    5.04    1.39
   3 -25   1    9.96    5.04
   3  25  -1    3.13    0.75
  -3 -25  -1    1.85    0.96
   3 -25   1    2.03    0.97
   3  25  -1    3.44    0.74
   3  25  -1    2.95    0.98
  -3  25   1    3.68    1.15
  -3  25   1    4.24    0.83
  -3  25   1    2.69    0.90
   3  25  -1    2.46    0.78
   3 -25  -1    4.24    1.22
  -3 -25   1    3.93    2.09
  -3 -25   1    2.74    1.14
  -3  25  -1    3.19    0.94
   3  25   1    3.29    0.76
  -3  25  -1    1.95    3.64
  -3  25  -1    4.67    0.95
  -3  25  -1    3.38    1.00
   3  25   1    5.68    0.99
  -3  25  -1    3.23    5.94
  -3 -25   1    0.43    1.89
  -3 -25   1    5.06    1.70
   3  25   1    2.39    1.17
   3  25   1    3.74    1.05
  -3  25  -1    4.11    1.15
   3 -25  -1    3.97    0.94
   3  25   1    2.79    0.70
  -3  25  -1    5.01    3.73
   5 -25   1    2.54    1.44
  -5 -25  -1    3.10    3.06
   5  25  -1    2.23    1.54
  -5 -25  -1   -0.53    2.56
   5 -25   1    1.00    1.10
  -5 -25  -1   -0.12    2.05
  -5  25   1    2.48    1.39
  -5  25   1   -0.63    1.18
   5  25  -1    0.71    1.40
   5  25  -1    0.51    1.17
   5 -25   1    4.35    1.95
   5  25  -1    1.92    1.42
   5 -25   1    2.95    1.59
   5  25  -1    5.00    1.43
  -5  25   1    4.24    2.12
   5 -25  -1    1.82    1.85
   5  25   1    1.72    1.77
  -5 -25   1    1.37    1.80
  -5  25  -1    1.59    1.11
  -5 -25   1   -1.03    2.08
   5 -25  -1    1.55    1.28
   5  25   1    2.03    1.23
  -5 -25   1    2.09    2.86
  -5  25  -1    0.98    1.09
   5  25   1    4.17    1.38
   5  25   1    3.03    1.19
  -5 -25   1    5.50    2.49
   5  25   1    2.91    1.38
  -5  25  -1    1.50    1.97
   5 -25  -1    0.33    1.45
  -7 -25  -1   -0.62    3.79
   7 -25   1    2.37    1.45
   7 -25   1    5.13    2.27
   7  25  -1   -1.11    1.99
  -7 -25  -1    1.46    2.33
  -7  25   1    1.74    1.62
   7 -25   1    4.36    1.74
   7  25  -1   -2.83    1.69
   7  25   1    1.46    1.92
   7  25   1    6.65    3.11
   7 -25  -1    0.94    2.29
  -7 -25   1    0.32    1.96
   7 -25  -1    3.60    1.46
   7  25   1   -1.96    1.98
  -7 -25   1    1.02    3.24
   7  25   1    0.92    1.90
   7 -25  -1    0.03    1.88
  -7  25  -1    2.90    1.69
  -7  25  -1    0.23    1.37
  -7 -25   1    4.08    4.08
   0 -26  -1    0.80    0.48
   0  26   1    0.51    0.59
   0 -26   1   -0.14    0.33
   0 -26  -1    0.95    2.63
   0 -26  -1    0.41    0.77
   0  26  -1   -0.61    2.02
   0 -26  -1    2.26    2.73
   0  26  -1    0.65    0.49
   0  26   1    0.68    0.48
   0  26   1    0.40    2.64
   0  26   1    3.15    2.71
   0  26   1    0.84    0.93
   0  26  -1    1.00    0.75
   0 -26   1   -1.30    1.41
   0 -26  -1    0.99    1.29
   0 -26   1    2.47    1.80
   0  26  -1    1.58    0.71
   0 -26   1    2.27    1.56
   0 -26   1    1.54    0.30
   0  26   1    1.05    0.48
   0  26   1   -0.35    3.25
   0 -26  -1    1.01    0.54
   0 -26   1    1.63    1.86
   0 -26   1    0.53    0.43
   0  26   1    0.73    0.77
   0  26  -1   -0.03    0.50
   0 -26  -1    0.45    3.14
   0 -26   1    1.49    0.54
   0  26  -1    0.29    0.45
  -2 -26  -1    1.54    0.77
   2  26  -1    0.00    0.42
  -2  26   1    0.87    0.88
  -2 -26  -1    4.44    4.05
   2 -26   1   -1.55    3.47
  -2  26   1    0.82    1.18
   2 -26   1    1.66    2.74
   2  26  -1    0.46    0.65
  -2  26   1    1.75    4.29
  -2  26   1    0.10    0.57
   2 -26   1    0.86    0.54
   2  26  -1    1.86    3.91
  -2  26   1    0.88    0.52
  -2 -26  -1    2.07    0.75
  -2 -26  -1   -8.23    3.78
  -2  26   1   -2.94    3.67
   2  26  -1    0.66    0.67
  -2 -26  -1   -0.58    1.75
  -2  26   1    6.03    3.99
  -2  26   1    2.04    0.93
   2 -26   1   -2.02    3.62
  -2 -26  -1    2.12    2.13
  -2 -26   1    4.07    2.19
  -2 -26   1   -0.19    1.93
   2 -26  -1   -3.78    4.00
   2 -26  -1    4.29    3.66
  -2  26  -1   -0.34    0.70
  -2  26  -1    1.04    0.60
  -2  26  -1   -0.42    1.99
   2 -26  -1   -5.51    3.63
   2  26   1    0.64    0.67
   2  26   1    0.90    0.86
  -2  26  -1    0.31    0.57
   2 -26  -1    0.62    1.08
  -2  26  -1    5.10    4.10
  -2 -26   1   -0.19    0.55
   2 -26  -1    0.66    0.53
  -2 -26   1   -3.28    2.98
  -2  26  -1    1.14    0.93
   2  26   1    0.27    0.56
   2  26   1   -0.08    1.01
  -2 -26   1    4.41    3.15
   2  26   1    1.13    0.54
   2  26   1    0.44    0.51
   2  26   1    1.73    4.67
  -2 -26   1    1.33    0.70
  -2  26  -1   -1.42    1.97
   4  26  -1    2.19    1.23
  -4 -26  -1   -1.92    2.56
   4  26  -1    0.50    0.80
  -4  26   1    1.17    1.09
  -4  26   1    2.05    0.92
  -4  26   1    1.85    1.85
   4 -26   1    1.08    1.00
   4 -26   1   -0.04    1.22
   4 -26   1    0.71    1.37
   4  26  -1    1.10    1.05
  -4 -26  -1   -0.41    2.74
   4  26  -1    0.59    0.93
  -4 -26  -1   -0.20    1.26
   4 -26  -1    0.02    1.05
   4  26   1    1.74    0.96
  -4  26  -1    1.39    1.01
  -4 -26   1    5.74    2.30
  -4 -26   1   -3.31    1.77
  -4  26  -1   -0.33    0.81
   4 -26  -1    0.16    0.90
   4  26   1    0.45    0.87
  -4  26  -1    0.54    1.28
  -4 -26   1    0.63    1.34
   4  26   1    0.10    1.25
   4 -26  -1   -0.95    1.28
  -4  26  -1    0.23    1.04
  -4 -26   1   -1.17    2.20
   4  26   1    0.52    0.85
   4  26   1    1.12    1.21
   6 -26   1    1.23    1.25
   6  26  -1    1.89    2.42
   6 -26   1   -1.25    1.96
  -6  26   1   -0.04    1.61
   6 -26   1    1.22    1.87
  -6 -26  -1   -0.03    3.39
   6 -26   1    1.20    1.54
  -6 -26  -1   -1.17    2.04
  -6  26   1   -2.57    2.43
  -6 -26  -1   -1.42    3.38
   6  26  -1    2.26    1.76
   6  26  -1    0.65    1.57
  -6  26   1    1.69    1.41
   6  26   1   -0.32    1.56
   6  26   1   -1.99    2.39
   6 -26  -1    1.55    2.11
   6  26   1    1.14    1.62
  -6 -26   1   -3.02    3.12
   6 -26  -1    0.82    2.03
   6  26   1    2.13    1.80
  -6  26  -1    0.73    1.30
   6 -26  -1    1.32    1.76
   6 -26  -1    1.18    1.42
  -6  26  -1    1.44    1.33
  -6 -26   1   -1.84    2.61
  -6 -26   1   -0.14    1.77
  -6 -26   1    3.27    3.63
   6  26   1   -1.01    1.60
  -1  27   1  136.25   10.39
   1  27  -1  143.45    8.31
   1  27  -1  136.40    8.12
  -1  27   1  146.19    8.61
  -1  27   1  139.09   10.84
   1 -27   1  139.62    9.31
   1  27  -1  142.75    8.41
   1 -27   1  141.80    9.15
   1  27  -1  139.12    8.37
  -1  27   1  132.44   10.98
  -1 -27  -1  124.16   10.82
  -1  27   1  138.47    8.96
   1 -27   1  133.10    8.67
  -1 -27  -1  129.93    8.37
   1  27  -1  137.23    9.80
  -1 -27  -1  153.39    9.70
  -1 -27  -1  144.97    9.16
  -1  27   1  146.43    8.36
  -1  27   1  148.47    8.41
  -1  27   1  116.74    8.11
   1 -27   1  139.23    8.03
  -1 -27  -1  114.46   10.30
  -1 -27  -1  142.29    8.43
   1  27  -1  144.23    8.48
   1  27   1  143.10    8.24
  -1  27  -1  137.87    8.31
  -1  27  -1  133.75    8.18
  -1 -27   1  136.68    9.88
  -1  27  -1  141.33    8.85
  -1 -27   1  111.89    9.80
  -1 -27   1  137.02    9.61
   1 -27  -1  133.52    8.64
   1  27   1  136.98    8.38
  -1 -27   1  139.91    8.16
   1 -27  -1  135.04   10.85
  -1  27  -1  143.06    8.45
   1  27   1  134.87    8.20
  -1  27  -1  146.94    8.52
  -1 -27   1  133.42    8.43
   1 -27  -1  139.09    8.38
  -1 -27   1  145.56    9.84
   1 -27  -1  147.10    8.38
   1  27   1  119.78    8.15
   1  27   1  144.48    8.63
   1 -27  -1  127.84   10.42
   1 -27  -1  143.98   11.42
   1  27   1  136.19    8.64
  -1  27  -1  134.15    9.14
  -1 -27   1  139.68    8.29
  -3  27   1   94.31    6.18
  -3  27   1   98.32    5.95
   3 -27   1   96.34    6.22
  -3  27   1   96.60    6.57
  -3 -27  -1   91.31    6.13
   3  27  -1   87.55    5.90
  -3 -27  -1   87.16    8.29
   3 -27   1   89.83    6.41
   3  27  -1   90.71    5.63
  -3 -27  -1   88.33    6.23
   3  27  -1   88.01    5.87
   3  27  -1   91.17    5.68
  -3 -27  -1   75.03    8.02
   3 -27   1   95.40    5.97
   3  27  -1   84.12    6.13
   3  27   1   90.73    5.74
  -3  27  -1   89.28    5.83
   3 -27  -1   96.09    6.02
   3 -27  -1   85.61    6.49
  -3 -27   1   99.56    7.90
  -3  27  -1   87.29    5.95
   3  27   1   87.03    5.88
  -3 -27   1  100.47    8.17
   3  27   1   83.19    6.06
  -3 -27   1   95.71    6.19
   3  27   1   87.68    5.79
   3  27   1   91.96    5.81
  -3  27  -1   97.75    6.20
  -3  27  -1   93.68    6.42
   5 -27   1   42.45    4.03
  -5 -27  -1   45.86    6.33
   5 -27   1   43.47    3.49
   5 -27   1   41.74    4.14
  -5  27   1   43.95    3.88
  -5 -27  -1   40.90    6.14
   5  27  -1   41.91    3.62
   5  27  -1   40.50    3.57
   5  27  -1   42.70    3.80
   5 -27   1   35.99    4.24
  -5 -27  -1   40.88    4.69
  -5  27   1   39.08    3.60
  -5  27  -1   44.45    3.75
  -5 -27   1   28.68    4.00
   5  27   1   37.94    3.57
  -5 -27   1   37.30    4.18
  -5  27  -1   39.50    3.62
  -5 -27   1   48.88    5.90
   5 -27  -1   43.79    4.20
   5 -27  -1   40.84    3.97
   5  27   1   46.80    3.75
   5  27   1   45.62    3.63
  -5 -27   1   29.44    4.91
   5 -27  -1   39.08    4.53
   5  27   1   41.27    4.25
   7 -27   1   20.31    2.49
   7 -27   1   18.93    3.38
  -7  27   1   17.41    2.50
   7 -27   1   19.96    2.75
  -7 -27  -1   12.42    4.61
  -7 -27  -1   12.90    3.02
   7  27  -1   18.37    2.73
   7 -27  -1   16.41    2.53
   7 -27  -1   19.99    3.81
  -7 -27   1   11.14    4.77
   7  27   1   13.92    2.51
  -7 -27   1    8.92    2.64
  -7  27  -1   16.72    2.45
   7 -27  -1   18.87    2.85
   7  27   1   13.45    2.80
  -7  27  -1   11.13    2.36
   0 -28  -1   -6.46    3.21
   0 -28   1    0.27    0.46
   0  28   1    0.89    3.87
   0 -28  -1   -0.34    1.32
   0  28   1   -0.45    1.00
   0 -28   1    1.90    2.19
   0  28  -1   -0.66    0.68
   0 -28  -1    0.81    0.57
   0 -28  -1   -1.21    3.64
   0 -28  -1    0.43    0.50
   0  28  -1   -2.87    2.43
   0  28  -1    0.50    0.78
   0  28   1    1.36    3.31
   0  28   1    0.10    3.20
   0  28   1    0.62    0.66
   0 -28   1    1.89    1.49
   0 -28   1    0.44    0.45
   0 -28   1   -1.41    2.21
   0  28   1    0.60    1.12
   0  28   1   -0.24    0.44
   0 -28   1   -0.35    1.53
   0  28  -1    0.33    0.48
   0  28  -1    0.15    0.59
   0 -28  -1    1.97    0.89
   0 -28  -1    2.96    3.35
   0  28  -1    0.41    0.47
   0  28   1   -0.23    0.46
   2  28  -1   -0.97    0.69
  -2  28   1    1.35    1.05
  -2 -28  -1    0.42    0.71
  -2  28   1    0.15    0.54
   2 -28   1   -2.10    3.86
  -2 -28  -1    0.76    0.69
   2  28  -1    0.51    0.75
   2  28  -1    0.08    0.54
  -2  28   1    1.49    1.31
  -2 -28  -1    0.06    1.96
  -2  28   1    1.42    0.67
  -2 -28  -1    0.59    2.38
   2 -28   1   -2.91    3.13
   2 -28   1   -0.01    0.56
   2 -28   1    0.76    4.10
  -2 -28   1    4.38    2.33
  -2  28  -1    5.30    4.70
  -2 -28   1    0.75    0.66
  -2  28  -1    0.04    0.87
   2  28   1   -0.05    0.51
   2  28   1   -0.54    0.97
  -2  28  -1    1.33    2.32
   2  28   1    0.67    0.84
   2 -28  -1   -0.26    1.18
  -2  28  -1    0.03    0.53
   2  28   1    0.40    0.57
   2 -28  -1    0.89    0.57
   2  28   1   -0.02    0.55
  -2 -28   1   -0.32    0.65
  -2  28  -1    1.12    0.97
  -2  28  -1    1.15    2.35
  -2  28  -1    0.63    0.53
  -2 -28   1   -0.34    2.34
  -4  28   1   -0.92    1.02
   4 -28   1   -1.02    1.00
   4  28  -1   -0.58    1.05
  -4  28   1    0.45    0.84
   4 -28   1    2.52    1.46
   4  28  -1    2.19    1.09
   4  28  -1   -0.39    0.77
   4  28  -1    0.34    1.33
  -4 -28  -1    1.09    1.40
   4 -28   1   -0.04    1.36
  -4 -28  -1   -0.64    2.99
  -4 -28  -1    3.80    3.41
   4  28   1   -0.21    0.91
  -4  28  -1    0.44    1.52
   4 -28  -1   -1.57    1.36
  -4 -28   1    2.79    2.91
  -4  28  -1   -0.34    1.01
  -4 -28   1    0.33    1.43
   4 -28  -1    0.25    1.16
   4  28   1   -1.12    1.36
   4  28   1    0.63    0.94
  -4  28  -1   -0.48    0.93
   4 -28  -1   -0.32    0.88
   4  28   1    1.25    1.04
  -4 -28   1    0.81    2.43
   4  28   1    0.45    1.39
  -4  28  -1   -0.73    1.04
  -6 -28  -1    3.40    3.48
  -6 -28  -1   -0.57    2.30
  -6  28   1    5.26    1.88
   6 -28   1    1.14    1.25
   6  28  -1    0.74    1.70
  -6  28   1    1.45    1.39
   6 -28   1    0.11    2.17
   6 -28   1    1.80    1.74
  -6  28  -1    0.35    1.41
  -6  28  -1    1.30    1.27
  -6 -28   1   -1.49    1.90
   6 -28  -1   -1.45    1.74
   6 -28  -1    1.58    1.63
  -6 -28   1    2.91    3.38
   6  28   1    2.55    1.79
   6  28   1   -1.12    1.74
   6 -28  -1   -0.68    2.50
   1 -29   1    1.37    2.80
  -1 -29  -1    1.89    1.76
  -1  29   1    1.98    0.63
   1  29  -1    1.49    3.41
  -1  29   1    2.06    1.17
   1 -29   1    0.72    0.71
  -1 -29  -1    3.59    1.45
   1  29  -1   -1.13    0.86
  -1 -29  -1    1.31    0.69
   1  29  -1    0.42    0.61
  -1 -29  -1    0.51    0.63
   1 -29   1    0.83    0.52
   1 -29   1    5.15    2.89
   1 -29   1   -0.07    1.41
   1  29  -1   -0.13    0.47
  -1  29   1    2.06    1.33
   1  29  -1    1.57    0.88
   1  29  -1    0.66    0.67
  -1  29   1    0.69    0.54
   1  29   1    1.60    1.02
  -1 -29   1    1.74    0.60
   1 -29  -1    1.51    0.68
  -1  29  -1    2.00    0.70
   1 -29  -1    0.99    0.59
  -1 -29   1    0.27    0.62
   1 -29  -1    3.04    1.33
  -1  29  -1    2.32    2.84
  -1  29  -1   -1.16    0.91
   1  29   1    1.14    0.60
   1  29   1    1.90    0.66
  -1 -29   1    0.92    0.67
   1  29   1    2.00    1.19
  -1  29  -1    0.35    0.53
  -1  29  -1    0.68    0.89
  -1 -29   1    1.43    2.15
   1  29   1    1.07    0.87
  -1 -29   1   -1.01    2.40
  -1 -29   1   -1.53    2.98
  -1  29  -1    1.67    0.82
  -1 -29   1   -0.31    2.97
  -3 -29  -1    0.03    0.87
   3 -29   1    0.19    0.97
   3  29  -1    3.51    1.19
  -3 -29  -1    0.76    3.18
  -3  29   1   -1.58    1.22
   3  29  -1   -0.01    1.13
   3  29  -1    1.36    0.78
  -3 -29  -1    1.86    0.96
   3 -29   1    0.26    1.11
   3  29  -1    0.32    0.68
  -3 -29  -1    2.76    3.18
  -3  29   1    0.88    0.81
   3 -29   1    0.35    0.93
  -3  29   1    0.64    0.95
  -3 -29   1    0.20    0.96
   3  29   1    1.17    1.05
  -3  29  -1    0.38    0.86
  -3  29  -1   -0.79    0.98
  -3  29  -1   -2.03    1.13
  -3 -29   1    2.81    2.83
   3 -29  -1   -0.02    0.71
   3  29   1    0.08    0.68
   3  29   1    0.46    0.78
  -3  29  -1    0.50    0.78
   3  29   1    1.30    0.76
  -3 -29   1    3.82    2.75
   3  29   1   -0.69    1.24
   3 -29  -1   -0.56    1.10
   5  29  -1   -1.13    1.72
  -5  29   1   -3.11    1.27
   5 -29   1   -1.08    1.51
  -5  29   1    0.12    1.31
  -5 -29  -1    2.14    2.07
   5 -29   1   -0.65    1.12
   5 -29   1    1.47    1.86
  -5 -29  -1    0.34    2.92
  -5 -29  -1    3.72    3.57
   5 -29   1   -2.28    1.74
   5  29  -1    1.53    1.67
   5  29  -1    0.74    1.21
  -5  29  -1    0.64    1.34
  -5  29  -1    0.69    1.08
   5 -29  -1    0.64    1.41
   5  29   1    1.12    1.48
   5  29   1   -1.87    1.63
   5 -29  -1    0.93    1.76
   5  29   1    0.27    1.47
  -5 -29   1   -0.72    1.64
  -5 -29   1    2.89    3.22
  -5 -29   1    0.22    2.60
   5 -29  -1    0.35    1.92
   5  29   1   -0.18    1.41
   5  29   1   -0.65    2.28
   0 -30  -1   32.65    3.24
   0 -30   1   26.78    3.79
   0  30   1   32.52    2.43
   0 -30   1   35.36    3.33
   0 -30   1   25.45    3.77
   0 -30   1   31.13    2.21
   0  30  -1   32.23    2.69
   0  30  -1   32.88    4.00
   0  30   1   31.03    2.52
   0  30  -1   32.86    2.45
   0 -30  -1   31.27    2.48
   0  30  -1   28.13    2.52
   0 -30  -1   34.35    2.71
   0 -30   1   32.80    2.46
   0  30  -1   32.05    2.59
   0  30  -1   32.73    2.58
   0 -30  -1   32.17    2.49
   0  30   1   28.37    3.13
   0 -30   1   34.10    3.59
  -2 -30  -1   24.36    3.88
   2  30  -1   26.98    2.18
  -2  30   1   27.02    2.33
  -2  30   1   27.11    2.33
   2  30  -1   27.16    2.57
   2 -30   1   25.35    2.06
   2  30  -1   23.54    2.33
  -2 -30  -1   23.24    4.31
  -2 -30  -1   24.82    2.33
  -2  30   1   28.45    3.00
  -2 -30  -1   27.37    2.42
  -2  30  -1   22.19    2.31
  -2 -30   1   21.76    4.40
  -2 -30   1   25.75    2.14
  -2  30  -1   27.04    2.26
  -2  30  -1   23.95    2.24
   2 -30  -1   27.21    2.23
   2  30   1   24.76    2.11
   2  30   1   28.19    2.39
   2  30   1   24.45    2.70
   2  30   1   25.00    2.30
  -2 -30   1   28.99    4.95
  -2 -30   1   24.80    2.36
   2  30   1   23.41    2.07
   2 -30  -1   27.53    2.36
  -2  30  -1   23.82    2.65
   4 -30   1   12.00    2.18
  -4 -30  -1   20.59    5.07
   4  30  -1   10.82    1.79
   4  30  -1   17.34    2.38
   4  30  -1   14.68    2.05
   4 -30   1   15.67    2.73
   4 -30   1   20.01    2.23
  -4  30   1   16.51    2.52
  -4 -30  -1   15.05    2.54
   4  30  -1   13.20    1.88
  -4 -30  -1   22.88    4.94
  -4  30   1   16.03    1.96
   4  30   1   13.08    2.05
   4 -30  -1   12.29    2.18
   4  30   1   15.66    1.95
  -4 -30   1   16.98    3.98
   4  30   1   18.56    2.48
   4  30   1   17.28    1.96
   4  30   1   18.33    1.94
  -4 -30   1   17.07    4.34
  -4  30  -1   17.96    2.42
  -4 -30   1   14.79    2.39
  -4  30  -1   18.42    2.41
   4 -30  -1   16.90    2.24
   4 -30  -1   11.80    2.73
   4  30   1    9.76    2.73
  -4  30  -1   17.50    2.49
   6 -30   1    6.80    2.64
   6 -30   1    8.21    1.78
  -6  30   1    9.21    2.03
  -6 -30  -1    8.34    3.81
   6 -30   1    4.02    1.96
  -6  30   1    7.54    2.05
   6  30  -1    4.18    2.00
  -6 -30  -1    6.04    2.75
  -6 -30   1    4.82    3.96
  -6 -30   1    7.45    2.51
   6 -30  -1    4.87    2.83
  -6  30  -1    5.45    1.75
  -6  30  -1    3.69    1.77
   6  30   1    8.79    2.14
   6  30   1    5.59    2.20
   6 -30  -1    7.40    1.95
   6 -30  -1    6.86    2.27
   1  31  -1    4.68    0.96
   1 -31   1    5.68    1.12
  -1 -31  -1    8.15    2.57
   1  31  -1    6.38    1.20
   1 -31   1    6.52    0.86
  -1  31   1    4.73    0.97
  -1 -31  -1    6.93    1.20
   1  31  -1    7.08    1.13
  -1 -31  -1    5.82    1.16
  -1  31   1    9.32    1.77
  -1 -31  -1    8.02    1.88
   1 -31   1    5.79    1.93
   1  31  -1    6.05    1.08
   1  31  -1    8.09    4.47
  -1  31   1    4.98    1.07
   1 -31  -1    9.89    1.41
  -1  31  -1    6.47    1.18
  -1 -31   1    6.63    1.27
  -1 -31   1    6.34    2.66
   1 -31  -1    6.34    1.02
   1  31   1    6.34    0.98
   1  31   1    8.09    1.55
   1 -31  -1    7.40    1.72
  -1  31  -1    6.26    1.43
  -1 -31   1    7.46    1.15
  -1  31  -1    9.20    1.20
   1  31   1    5.47    1.02
   1  31   1    4.71    1.48
  -1 -31   1    8.16    2.70
  -1  31  -1    3.50    1.25
  -1 -31   1    8.16    1.08
  -1  31  -1    6.35    1.28
   3  31  -1    3.68    1.53
  -3  31   1    5.87    1.34
   3 -31   1    2.52    1.36
  -3 -31  -1    4.64    1.23
  -3  31   1    7.95    1.74
   3 -31   1    1.55    1.37
  -3 -31  -1    0.01    2.96
   3  31  -1    2.51    1.29
   3 -31   1    6.29    1.34
  -3 -31  -1    1.80    3.14
  -3 -31  -1    6.77    1.55
   3  31  -1    4.10    0.97
  -3  31   1    4.50    0.98
  -3  31  -1    5.92    1.28
  -3 -31   1    5.81    1.39
   3 -31  -1    1.22    1.34
  -3 -31   1    3.25    3.13
   3  31   1    2.92    1.25
   3  31   1    2.60    0.96
   3  31   1    5.87    1.64
   3  31   1    3.66    0.97
  -3  31  -1    5.08    1.27
   3  31   1    5.18    1.15
  -3  31  -1    3.19    1.33
   3 -31  -1    3.85    0.99
  -3 -31   1    2.64    3.28
   5  31  -1   -2.85    1.91
   5  31  -1   -0.46    2.06
   5 -31   1    4.83    2.36
  -5 -31  -1    1.51    2.19
   5 -31   1   -0.29    1.73
   5  31  -1    1.55    1.47
  -5 -31  -1    2.39    3.83
  -5  31   1    2.30    1.47
  -5 -31  -1    5.75    3.75
   5 -31   1    1.66    1.98
  -5  31   1    3.41    1.47
   5 -31   1    2.85    1.35
   5 -31  -1    1.37    1.80
  -5 -31   1    4.04    3.48
  -5  31  -1    0.69    1.28
   5  31   1    1.88    1.50
   5  31   1    0.85    1.52
  -5 -31   1    0.39    2.08
   5 -31  -1   -1.43    1.99
   5  31   1    0.24    1.75
  -5  31  -1    1.45    1.45
   5 -31  -1    2.00    2.36
  -5 -31   1    5.33    3.98
   0  32   1    0.66    0.61
   0  32  -1    0.32    0.61
   0 -32   1    1.30    0.57
   0 -32   1   -2.70    1.87
   0  32   1    1.02    1.31
   0 -32  -1   -1.06    0.55
   0 -32   1    0.16    1.62
   0  32   1    0.14    0.62
   0  32  -1    0.07    0.64
   0 -32  -1    0.30    1.06
   0 -32  -1   -0.17    1.67
   0 -32  -1    0.49    0.69
   0 -32   1    0.49    0.65
   0  32  -1    0.91    0.86
   0  32  -1   -0.95    1.09
   0  32  -1    0.68    0.92
   2  32  -1    0.00    1.03
  -2  32   1    0.70    0.76
  -2 -32  -1    1.80    0.95
  -2 -32  -1    3.02    2.49
  -2 -32  -1   -1.16    2.70
   2  32  -1    0.90    1.13
  -2 -32  -1    0.15    0.85
   2 -32   1   -0.69    0.75
  -2  32   1    1.51    0.87
   2  32  -1    0.83    0.72
  -2  32   1   -0.98    1.19
  -2 -32   1    0.50    0.85
  -2  32  -1    1.12    1.21
  -2 -32   1   -0.13    3.18
   2  32   1   -0.39    0.70
  -2  32  -1    1.03    0.79
  -2 -32   1    0.81    3.16
   2  32   1   -0.74    1.25
  -2  32  -1    1.09    0.84
  -2 -32   1   -1.05    0.74
   2 -32  -1   -0.11    0.72
   2  32   1    1.22    0.89
   2  32   1   -1.00    0.68
   2 -32  -1    0.18    0.78
  -4  32   1    1.09    1.36
   4 -32   1    0.23    1.32
   4  32  -1   -0.83    1.02
  -4 -32  -1    0.82    3.81
  -4 -32  -1   -5.89    3.56
  -4 -32  -1   -2.68    1.47
   4 -32   1    3.15    1.64
   4  32  -1   -0.12    1.70
   4 -32   1    1.60    1.80
  -4  32   1    1.90    1.15
  -4 -32   1    3.31    3.22
   4  32   1    0.97    1.43
   4  32   1    1.41    1.12
  -4 -32   1   -0.98    1.62
   4  32   1   -0.97    1.21
   4 -32  -1    0.29    1.75
   4 -32  -1    1.56    1.30
  -4  32  -1    2.18    1.30
  -4  32  -1    0.05    1.29
   4 -32  -1    0.20    1.45
  -4  32  -1    0.55    1.06
   4  32   1   -1.40    1.09
  -4 -32   1    6.69    3.50
   6 -32   1    1.53    1.99
   6 -32   1   -0.14    2.38
   6  32  -1   -1.39    1.84
  -6 -32  -1   -0.38    3.72
  -6  32   1    2.53    2.06
   6 -32   1    1.00    1.50
  -6 -32  -1   -1.84    2.55
  -6  32   1    0.36    1.48
   6  32   1    4.74    2.06
  -6  32  -1   -1.12    1.34
   6  32   1    0.42    2.03
   6 -32  -1    0.71    1.72
  -6 -32   1    3.15    3.92
   6 -32  -1   -0.53    2.01
  -6 -32   1   -4.10    2.25
   6 -32  -1   -1.94    2.64
  -6  32  -1   -0.35    1.66
  -1  33   1    0.84    0.74
  -1 -33  -1    4.66    1.09
   1 -33   1    3.96    0.71
  -1 -33  -1    0.39    0.77
   1  33  -1    3.07    1.00
  -1  33   1    3.62    0.93
   1  33  -1    3.98    1.06
   1 -33   1    4.03    2.00
   1  33  -1    3.54    0.89
  -1 -33  -1    3.88    1.77
   1 -33   1    2.54    0.94
  -1 -33  -1    3.61    2.24
   1  33  -1    2.33    1.00
  -1  33   1    1.32    1.47
  -1 -33   1    6.50    3.01
  -1 -33   1    3.24    0.96
  -1  33  -1    2.02    0.89
   1  33   1    2.35    0.77
  -1  33  -1    1.41    1.18
   1  33   1    1.70    1.38
  -1 -33   1    0.07    2.81
   1 -33  -1    2.14    0.77
  -1  33  -1    2.39    1.07
   1 -33  -1    1.31    1.64
  -1  33  -1    2.42    0.91
   1 -33  -1    3.06    0.95
  -1 -33   1    1.89    0.87
  -1 -33   1    3.31    0.85
   1  33   1    1.98    0.82
   3 -33   1    2.32    1.33
   3 -33   1    1.73    1.23
  -3  33   1    1.30    1.18
  -3  33   1    3.07    1.40
   3 -33   1    3.77    1.66
  -3 -33  -1    0.73    3.40
   3  33  -1    1.72    1.50
  -3 -33  -1    1.35    3.36
  -3 -33  -1    3.93    1.35
  -3  33   1    3.41    0.95
   3  33  -1    2.81    1.00
  -3 -33  -1    2.10    1.23
   3  33  -1    4.80    1.61
  -3  33  -1    2.12    1.12
   3 -33  -1    0.31    1.35
   3 -33  -1    0.79    0.99
  -3 -33   1    7.51    4.08
  -3 -33   1   -0.98    3.30
  -3  33  -1    3.43    1.40
   3  33   1    2.37    0.91
   3  33   1    0.24    0.91
   3  33   1    2.40    1.09
  -3  33  -1    2.20    1.15
  -3 -33   1    0.37    1.10
   3  33   1    1.40    0.90
   3  33   1    0.77    1.57
   5 -33   1    0.93    1.28
   5 -33   1   -0.78    2.09
   5 -33   1    5.85    2.37
   5  33  -1    1.26    1.53
  -5 -33  -1    0.37    2.14
  -5 -33  -1   -3.55    4.19
  -5  33   1    2.15    1.63
  -5  33   1    3.22    1.64
   5  33  -1    1.91    2.25
   5 -33   1    1.33    1.88
  -5 -33  -1    1.42    3.58
   5 -33  -1    1.04    2.18
  -5  33  -1   -1.06    1.46
  -5 -33   1    0.13    2.09
   5 -33  -1   -2.95    2.16
  -5  33  -1    1.50    1.39
   5  33   1   -1.65    1.54
   5  33   1   -0.04    1.62
  -5 -33   1    0.05    3.58
  -5 -33   1   11.93    4.50
   5  33   1    2.16    1.99
   5 -33  -1    2.40    1.70
   0  34  -1    2.72    0.81
   0 -34  -1    2.34    0.81
   0  34   1    0.20    1.61
   0  34  -1    2.15    0.90
   0 -34   1    1.42    0.69
   0  34  -1    0.81    1.03
   0 -34   1    1.90    2.23
   0  34   1    2.06    0.80
   0 -34  -1    2.71    0.90
   0  34   1    2.18    0.91
   0 -34  -1    2.50    1.98
   0  34  -1    1.50    1.00
   0 -34   1    1.25    0.82
  -2 -34  -1   -0.45    3.04
  -2  34   1    0.82    1.41
   2 -34   1    0.51    0.87
  -2 -34  -1    1.12    2.67
   2  34  -1    1.90    1.29
  -2  34   1    2.74    0.98
   2  34  -1   -0.28    1.16
  -2 -34  -1    2.13    1.04
   2  34  -1    1.19    0.82
  -2  34   1    0.40    0.79
  -2 -34  -1    1.31    1.01
  -2 -34   1    1.48    3.69
  -2 -34   1    1.34    3.57
   2  34   1    1.48    1.07
   2  34   1    0.66    0.80
  -2  34  -1    2.29    0.99
  -2 -34   1    1.86    0.89
   2 -34  -1    1.73    0.84
  -2 -34   1    1.39    1.04
  -2  34  -1    1.57    1.32
   2 -34  -1    1.88    0.94
  -2  34  -1    0.50    0.87
   2  34   1    2.16    1.46
  -4 -34  -1    3.91    4.04
  -4  34   1    1.89    1.22
   4 -34   1   -3.75    1.69
   4  34  -1   -0.81    1.07
  -4  34   1    2.28    1.40
  -4 -34  -1   -1.18    4.18
  -4 -34  -1   -0.43    1.56
   4 -34   1    3.89    1.43
   4  34  -1   -0.77    2.00
   4 -34   1    0.28    1.72
   4  34   1    0.44    1.31
  -4 -34   1    4.88    3.88
   4  34   1   -0.60    1.45
   4 -34  -1    1.80    1.65
  -4  34  -1   -0.63    1.33
   4 -34  -1    0.64    1.84
  -4 -34   1    0.74    1.61
  -4  34  -1    1.94    1.35
  -4  34  -1    0.79    1.41
   4  34   1    0.00    1.21
   4 -34  -1    0.28    1.27
   4  34   1   -0.37    1.28
  -4 -34   1   -6.57    3.20
  -6 -34  -1    2.18    2.83
   6 -34   1   -0.86    1.60
  -6 -34  -1   -2.91    3.98
   6 -34   1    2.74    2.13
  -6  34   1    1.35    2.14
   6  34  -1   -2.85    1.82
   6 -34   1    1.68    2.76
  -6  34   1    0.37    1.55
   6  34   1    1.66    2.32
  -6  34  -1   -0.26    1.72
   6 -34  -1   -0.89    2.74
  -6 -34   1    3.60    2.54
  -6 -34   1   -0.85    4.19
   6  34   1   -0.09    2.20
   6 -34  -1   -2.31    1.66
  -6  34  -1    1.00    1.46
   6 -34  -1   -1.74    2.23
  -1 -35  -1    4.02    2.00
   1 -35   1    9.66    1.17
   1 -35   1   12.16    1.70
  -1 -35  -1   10.60    3.05
  -1  35   1    8.66    1.45
  -1  35   1    8.95    1.41
   1  35  -1    9.85    1.60
  -1  35   1    7.35    1.99
   1  35  -1    7.72    1.24
  -1 -35  -1   10.37    1.69
   1  35  -1    9.24    1.62
  -1 -35  -1   10.05    1.57
  -1  35  -1    9.85    1.67
  -1 -35   1    8.76    1.53
   1 -35  -1    7.79    1.31
  -1 -35   1    5.73    3.15
  -1 -35   1    8.81    1.24
  -1  35  -1    9.97    1.40
   1  35   1    9.09    1.36
   1  35   1    6.99    1.35
  -1  35  -1   13.90    1.78
  -1 -35   1    9.48    3.35
   1  35   1   10.73    1.93
   1 -35  -1    7.19    2.04
  -1  35  -1    9.29    1.91
   1 -35  -1    7.48    1.41
  -3  35   1    4.94    1.61
   3  35  -1    4.36    1.84
  -3  35   1    6.11    1.63
   3  35  -1    2.55    1.74
  -3 -35  -1    0.72    4.10
   3 -35   1    5.28    1.54
   3  35  -1    4.87    1.28
  -3 -35  -1    9.53    1.81
  -3 -35  -1    6.62    4.28
  -3 -35  -1    5.09    1.53
  -3  35   1    6.81    1.46
   3 -35   1    3.29    1.58
   3 -35   1    6.50    1.90
   3  35   1    4.19    1.18
   3  35   1    5.23    1.22
   3  35   1    5.06    1.96
   3 -35  -1    5.31    1.36
   3 -35  -1    6.31    1.60
  -3  35  -1    6.97    1.71
  -3 -35   1    7.38    4.63
  -3  35  -1    8.15    1.58
  -3  35  -1    6.14    1.50
  -3 -35   1    7.25    4.62
   3 -35  -1    3.50    1.83
  -3 -35   1    4.40    1.40
   3  35   1    5.25    1.56
   5  35  -1    2.89    1.74
   5 -35   1    5.12    2.69
  -5  35   1    3.94    1.82
   5 -35   1    7.00    1.71
  -5 -35  -1    1.97    2.34
  -5  35   1    4.38    1.79
   5 -35   1    2.33    2.01
  -5 -35  -1    4.22    4.08
  -5 -35   1    0.71    3.94
   5 -35  -1    2.89    1.89
  -5 -35   1    3.03    2.24
  -5  35  -1    0.92    1.76
   5  35   1    2.77    1.69
   5 -35  -1    1.10    2.51
   5  35   1    2.33    1.83
  -5  35  -1    1.46    1.48
   0  36   1   19.33    2.09
   0 -36  -1   22.55    2.09
   0  36  -1   15.45    2.07
   0  36  -1   19.62    2.09
   0 -36   1   19.96    1.99
   0 -36  -1   23.42    3.49
   0  36  -1   17.71    1.89
   0 -36   1   18.04    1.67
   0  36   1   20.25    1.99
   0 -36   1   19.41    2.15
   0  36   1   18.21    2.64
   0 -36  -1   18.52    2.04
   0  36  -1   15.98    2.24
   0 -36   1   19.24    3.24
   2 -36   1   17.76    2.29
  -2  36   1   14.77    1.88
  -2 -36  -1   20.35    2.17
   2 -36   1   16.35    1.79
  -2  36   1   13.55    1.95
  -2 -36  -1   19.62    3.63
  -2 -36  -1   12.92    1.91
   2  36  -1   13.90    1.80
  -2  36   1   15.80    2.71
   2  36  -1   17.52    2.30
  -2 -36  -1   19.91    4.43
   2  36  -1   13.17    2.18
  -2 -36   1   15.37    1.86
   2  36   1   15.08    1.79
  -2 -36   1   13.46    2.08
  -2 -36   1   14.69    4.85
  -2 -36   1    9.47    4.72
  -2  36  -1   16.06    1.97
   2  36   1   15.40    2.02
   2 -36  -1   13.07    1.87
  -2  36  -1   12.12    2.29
   2 -36  -1   17.20    2.14
  -2  36  -1   12.88    1.91
   4  36  -1   12.77    2.57
  -4 -36  -1   16.52    5.15
   4 -36   1   10.82    1.87
  -4  36   1    7.31    2.00
   4  36  -1    7.16    1.70
  -4 -36  -1    9.00    2.13
  -4 -36  -1    6.15    5.12
  -4  36   1   11.34    1.86
   4 -36   1    8.96    2.37
   4 -36   1   15.02    2.94
   4  36   1    8.56    1.80
   4 -36  -1    9.89    2.21
   4 -36  -1    7.15    1.66
   4  36   1    7.93    1.74
  -4  36  -1    6.62    1.92
   4 -36  -1   14.51    3.04
  -4  36  -1   10.29    2.09
  -4 -36   1   11.94    2.35
  -4 -36   1   15.08    4.56
   4  36   1    7.15    2.11
  -4 -36   1    9.20    5.09
   1 -37   1   48.79    3.62
  -1  37   1   42.25    3.43
   1  37  -1   48.55    3.83
   1 -37   1   46.62    3.16
  -1  37   1   32.03    4.41
  -1 -37  -1   46.54    3.62
   1  37  -1   46.47    3.49
  -1 -37  -1   47.46    5.24
  -1 -37  -1   52.49    3.63
   1  37  -1   45.52    3.87
  -1  37   1   47.03    3.62
  -1  37  -1   43.28    3.63
   1 -37  -1   44.29    3.47
   1  37   1   38.15    3.69
  -1  37  -1   44.82    3.77
  -1  37  -1   43.50    3.87
   1  37   1   38.36    3.48
  -1  37  -1   45.28    3.51
   1 -37  -1   43.71    4.38
  -1 -37   1   51.36    3.82
   1  37   1   36.89    3.21
   1 -37  -1   47.07    3.56
  -1 -37   1   49.08    6.27
  -1 -37   1   48.11    3.35
  -3 -37  -1   32.92    3.25
  -3  37   1   29.58    3.18
  -3  37   1   31.17    2.97
   3  37  -1   32.15    3.84
  -3  37   1   30.68    3.46
   3  37  -1   29.60    3.63
  -3 -37  -1   17.64    5.55
   3 -37   1   34.47    3.14
   3 -37   1   32.45    3.86
  -3 -37  -1   28.66    6.30
   3  37  -1   27.90    2.79
   3 -37   1   24.30    3.35
   3 -37  -1   31.63    2.97
  -3  37  -1   38.40    3.21
   3  37   1   26.89    3.25
  -3 -37   1   15.51    5.67
  -3  37  -1   28.56    3.37
  -3 -37   1   33.88    3.04
  -3 -37   1   32.21    7.21
   3 -37  -1   37.05    3.21
   3 -37  -1   32.04    3.87
  -3  37  -1   31.43    3.21
   3  37   1   31.49    2.78
  -5 -37  -1   13.06    5.29
  -5 -37  -1   10.31    2.98
   5 -37   1   14.65    3.04
   5 -37   1   13.53    3.42
  -5  37   1   13.23    2.41
   5 -37   1   17.02    2.30
  -5  37   1   14.44    2.34
   5  37  -1   12.53    2.38
   5 -37  -1   16.96    3.57
  -5 -37   1   11.27    3.01
   5  37   1   12.75    2.44
  -5 -37   1   14.00    5.32
   5 -37  -1   16.34    2.79
  -5  37  -1   20.47    2.73
   5  37   1   12.50    2.54
  -5  37  -1   18.45    2.73
   0  38  -1    3.37    1.01
   0 -38  -1    2.42    0.97
   0  38  -1    1.57    1.15
   0 -38  -1    3.04    2.63
   0 -38   1    2.45    2.66
   0 -38   1    2.90    1.25
   0  38   1    1.75    1.74
   0  38   1    2.23    1.03
   0 -38  -1    3.05    1.12
   0 -38   1    2.98    1.16
   0 -38   1    1.57    0.98
   0  38  -1    2.16    1.30
   0 -38  -1    1.67    1.04
   0  38   1    3.63    1.13
   0  38  -1    1.50    1.28
  -2  38   1    3.43    1.33
   2  38  -1    2.49    1.61
   2  38  -1    2.29    1.05
  -2 -38  -1    5.14    3.08
  -2 -38  -1    3.55    1.26
   2 -38   1    3.39    1.34
   2 -38   1    3.41    1.30
  -2  38   1    0.19    1.65
   2  38  -1    2.69    1.56
  -2 -38  -1    4.48    1.30
   2 -38   1    3.09    1.72
  -2  38   1    3.28    1.11
  -2 -38  -1    4.49    3.70
   2 -38  -1    1.44    1.08
  -2 -38   1    1.39    1.15
   2  38   1    1.99    1.29
  -2  38  -1    1.16    1.57
  -2  38  -1    3.52    1.18
  -2 -38   1    4.56    4.63
   2  38   1    2.04    1.13
  -2 -38   1    3.20    1.30
   2 -38  -1    3.60    1.24
  -2  38  -1    2.88    1.24
  -2 -38   1    1.16    4.59
   4  38  -1   -6.32    2.35
   4 -38   1    3.03    2.38
  -4 -38  -1   -1.56    5.71
  -4 -38  -1    0.17    1.84
   4  38  -1   -0.55    1.32
  -4  38   1    0.77    1.56
  -4 -38  -1    6.72    4.86
   4 -38   1    3.81    1.65
  -4  38   1    2.48    1.48
   4 -38   1    2.82    2.33
  -4  38  -1   -2.59    1.51
   4  38   1    0.05    1.85
  -4 -38   1    1.54    1.81
   4  38   1    3.66    1.58
   4 -38  -1    2.50    2.16
  -4 -38   1    4.93    4.46
   4  38   1    0.09    1.62
   4 -38  -1    3.47    2.07
  -4  38  -1    1.50    1.37
   4 -38  -1    1.37    1.56
   4 -38  -1    2.28    1.88
  -4  38  -1   -0.86    1.67
  -4 -38   1   -4.82    5.00
  -1 -39  -1   31.72    4.81
   1  39  -1   18.25    2.56
   1  39  -1   21.82    2.26
  -1 -39  -1   25.27    2.47
   1  39  -1   15.43    2.44
   1 -39   1   20.78    2.36
  -1  39   1   18.96    3.02
   1 -39   1   20.59    2.12
  -1  39   1   20.14    2.30
  -1 -39  -1   17.25    2.31
  -1  39   1   20.81    2.33
   1  39   1   20.85    2.57
   1 -39  -1   23.64    2.35
  -1 -39   1   21.26    2.14
  -1 -39   1   23.41    4.49
   1 -39  -1   24.47    2.43
  -1  39  -1   19.57    2.81
  -1  39  -1   19.82    2.29
  -1  39  -1   23.34    2.47
   1  39   1   20.43    2.23
  -1 -39   1   21.05    2.49
  -3  39   1   11.47    1.85
  -3 -39  -1    9.25    5.15
  -3 -39  -1   13.18    2.13
  -3  39   1   20.40    2.55
   3 -39   1   16.38    2.51
   3  39  -1   10.28    2.58
   3  39  -1    9.79    2.60
   3 -39   1   12.49    2.63
   3 -39   1    9.86    2.39
   3  39  -1   18.24    2.11
  -3  39   1   15.26    2.64
  -3 -39  -1   11.28    5.02
   3 -39   1    8.01    2.46
  -3 -39   1   11.01    5.50
  -3 -39   1   -1.25    5.39
  -3  39  -1   11.00    2.36
   3 -39  -1   12.45    2.83
   3 -39  -1    7.52    2.12
  -3  39  -1   15.63    2.28
  -3  39  -1   19.82    2.37
   3 -39  -1   16.21    2.41
  -3 -39   1   14.73    1.96
   3  39   1   15.28    2.35
   3  39   1   10.99    1.84
   3 -39  -1   11.88    1.91
   5 -39   1    9.13    2.85
  -5  39   1    5.33    2.31
  -5 -39  -1    7.02    2.92
   5  39  -1    7.52    2.04
   5 -39   1    9.33    3.66
  -5 -39  -1    0.90    4.92
  -5  39   1    6.28    1.99
  -5  39  -1    8.13    2.31
  -5  39  -1    6.82    1.86
   5  39   1    7.29    2.43
   5 -39  -1    4.47    2.71
   5  39   1    6.20    2.34
   5 -39  -1    5.23    3.18
  -5 -39   1    5.71    2.70
  -5 -39   1    1.37    4.48
   5 -39  -1    4.81    2.30
   0 -40  -1   19.57    2.44
   0 -40  -1   19.77    2.24
   0  40   1   17.82    2.37
   0  40   1   20.70    2.28
   0 -40   1   24.75    2.47
   0 -40   1   21.93    2.11
   0 -40  -1   19.67    2.31
   0  40  -1   18.51    2.43
   0  40  -1   16.65    2.31
   0  40   1   19.78    3.10
   0  40  -1   22.02    2.33
   0 -40   1   26.52    2.68
   0 -40  -1   20.54    3.74
   0 -40   1   24.05    4.07
   0  40  -1   21.71    2.66
  -2  40   1   14.25    2.59
  -2 -40  -1   15.37    2.35
  -2 -40  -1   17.51    5.10
   2  40  -1   13.62    2.37
   2 -40   1   12.29    2.64
  -2  40   1   15.39    2.06
   2  40  -1   16.28    2.04
  -2  40   1   18.40    2.41
   2 -40   1   18.59    2.49
   2  40  -1   18.31    2.79
  -2 -40  -1   11.97    2.04
  -2 -40   1   15.80    2.51
   2 -40  -1   13.35    1.93
  -2 -40   1   16.73    5.63
  -2  40  -1   20.03    2.28
   2  40   1   16.18    2.32
   2 -40  -1   17.37    2.36
  -2 -40   1   19.73    2.27
  -2  40  -1   14.74    2.21
   2  40   1   14.91    1.99
  -2  40  -1   10.61    2.36
  -4 -40  -1    9.11    2.43
  -4 -40  -1   11.30    5.62
  -4  40   1    7.42    1.98
   4 -40   1   11.23    3.17
  -4  40   1   12.09    2.10
   4  40  -1    9.49    1.95
  -4  40  -1   11.12    2.21
  -4  40  -1   10.50    2.27
   4  40   1    9.93    2.33
   4 -40  -1   13.20    2.95
   4  40   1    8.55    2.07
  -4  40  -1   10.18    2.28
  -4 -40   1    1.31    5.24
  -4 -40   1   10.50    2.27
   4 -40  -1    5.15    2.04
   4 -40  -1    8.33    2.35
   1  41  -1   -1.04    0.99
   1 -41   1    0.04    1.11
  -1  41   1   -0.58    2.04
  -1 -41  -1    1.12    1.20
   1  41  -1    1.56    1.50
  -1 -41  -1    0.11    1.18
  -1  41   1   -0.53    1.06
  -1 -41  -1   -2.37    3.15
  -1  41   1    1.05    1.26
   1  41  -1   -0.63    1.56
   1 -41  -1    2.75    1.18
  -1 -41   1   -4.61    3.56
   1  41   1    1.54    1.07
   1  41   1    0.40    1.19
  -1  41  -1    0.63    1.53
  -1  41  -1   -0.35    1.20
  -1 -41   1    0.93    1.27
  -1 -41   1   -0.22    1.32
  -1  41  -1    1.48    1.12
   1 -41  -1    0.24    1.07
  -3 -41  -1   -0.59    1.38
  -3 -41  -1    6.50    5.46
  -3  41   1    3.16    1.82
  -3  41   1   -1.45    1.16
   3  41  -1    2.19    2.46
  -3  41   1    2.99    1.76
   3 -41   1    4.61    2.27
   3 -41   1    1.54    1.71
   3 -41   1    4.05    2.14
   3  41  -1   -0.80    1.18
   3 -41  -1    0.51    1.51
   3 -41  -1    2.12    1.91
  -3  41  -1   -1.42    1.70
  -3  41  -1    1.04    1.42
  -3  41  -1    0.36    1.42
  -3 -41   1   -2.46    6.52
  -3 -41   1   -1.68    1.37
   3 -41  -1    3.64    2.11
   3  41   1   -0.32    1.69
   3  41   1    0.34    1.36
   3 -41  -1   -1.05    1.33
  -3 -41   1   -1.07    5.43
   5  41  -1    0.72    2.06
  -5  41   1   -2.37    1.95
   5 -41   1   -5.81    2.95
  -5  41   1    2.14    1.75
   5 -41   1    1.00    2.49
  -5 -41  -1    1.57    2.75
  -5  41  -1   -1.41    1.88
  -5  41  -1    2.55    1.77
   5  41   1    0.80    2.44
   5 -41  -1    5.12    2.73
   5 -41  -1   -0.92    3.04
   5 -41  -1    0.63    2.32
  -5 -41   1   -3.12    2.44
   0  42  -1   -0.20    1.27
   0  42  -1   -1.45    0.98
   0 -42   1    1.18    1.30
   0 -42   1    1.17    1.28
   0  42   1    1.02    1.06
   0  42   1    2.88    2.07
   0 -42  -1   -2.82    2.93
   0  42   1    0.56    1.23
   0 -42  -1   -0.53    1.17
   0 -42  -1   -2.10    1.09
   0  42  -1   -1.13    1.48
   0  42  -1    0.50    1.58
   0 -42   1    0.51    1.44
   2 -42   1    0.60    1.86
   2  42  -1   -0.85    2.05
   2 -42   1   -1.23    1.83
  -2 -42  -1   -0.71    1.32
  -2  42   1   -0.30    1.95
   2  42  -1    1.19    1.16
  -2 -42  -1   -4.12    4.10
   2 -42   1   -1.53    1.40
   2  42  -1    0.77    1.85
  -2  42   1    1.14    1.14
  -2  42   1    0.70    1.41
  -2 -42  -1    0.89    1.29
   2  42   1   -0.35    1.40
  -2  42  -1   -0.24    1.37
   2 -42  -1   -0.34    1.29
   2 -42  -1   -0.82    1.19
  -2  42  -1    1.04    1.30
  -2 -42   1   -0.27    4.83
  -2 -42   1    1.66    1.50
   2  42   1    1.46    1.21
  -2 -42   1   -1.35    1.34
  -2  42  -1    2.74    1.99
   2 -42  -1   -2.45    1.77
  -4  42   1    1.03    1.68
  -4  42   1    4.96    1.83
   4  42  -1   -0.96    1.67
   4 -42   1   -1.64    2.02
  -4 -42  -1   -2.76    5.65
   4 -42   1   -1.88    2.64
  -4 -42  -1   -1.06    1.98
   4 -42  -1   -0.72    1.96
  -4  42  -1    0.35    1.89
   4  42   1   -1.68    2.42
  -4 -42   1    0.41    1.95
   4  42   1    2.24    1.89
   4 -42  -1   -3.39    2.55
  -4 -42   1   -2.13    5.09
  -4  42  -1   -2.55    1.63
   4 -42  -1   -0.83    2.03
  -4  42  -1   -1.04    1.85
  -1  43   1   -1.01    1.26
   1  43  -1   -1.54    1.56
  -1 -43  -1    0.09    1.27
   1 -43   1   -1.06    1.29
  -1 -43  -1    2.27    3.70
   1  43  -1    0.22    1.08
  -1  43   1   -3.04    2.07
   1  43  -1   -3.81    1.70
  -1 -43  -1   -1.08    1.26
  -1  43   1    2.36    1.32
   1  43   1   -1.17    1.19
  -1  43  -1    3.93    1.37
   1 -43  -1    0.48    1.21
   1  43   1    1.35    1.21
  -1 -43   1   -1.60    1.36
   1 -43  -1    0.16    1.29
  -1  43  -1    3.03    1.78
  -1  43  -1    0.73    1.17
  -1 -43   1   -0.99    1.41
  -1 -43   1    4.16    4.14
  -3 -43  -1    1.77    5.61
  -3 -43  -1    3.70    1.82
   3 -43   1    0.29    1.86
  -3  43   1   -0.31    1.78
   3 -43   1   -2.62    2.33
   3  43  -1    0.12    1.35
  -3  43   1   -1.45    1.86
  -3  43   1   -0.34    1.29
  -3  43  -1    0.17    1.58
  -3  43  -1   -0.29    1.50
  -3  43  -1   -1.03    1.81
   3  43   1    0.33    1.85
   3 -43  -1    1.16    2.23
   3 -43  -1   -0.76    1.62
  -3 -43   1    2.28    1.68
  -3 -43   1   -0.71    5.88
   3 -43  -1   -0.76    1.51
   0 -44  -1   -3.11    1.23
   0 -44   1   -0.53    1.58
   0 -44  -1    5.80    3.35
   0  44  -1    1.43    1.46
   0 -44   1    1.87    1.46
   0  44  -1   -0.93    1.18
   0  44   1   -1.22    2.09
   0  44   1    1.17    1.28
   0  44   1   -0.23    1.30
   0 -44  -1    0.20    1.40
  -2 -44  -1   -0.83    1.45
  -2  44   1    0.92    1.35
   2  44  -1    2.64    1.46
  -2  44   1   -1.14    2.12
  -2  44   1    0.17    1.52
   2 -44   1    2.49    2.30
   2 -44   1   -1.64    2.21
   2  44  -1    0.64    2.15
   2 -44   1    0.16    1.60
  -2 -44  -1   14.68    5.12
  -2 -44  -1    0.19    1.52
   2  44   1    1.46    1.36
  -2 -44   1   -6.84    5.19
  -2  44  -1    0.41    1.44
  -2  44  -1   -0.26    1.89
   2 -44  -1   -0.68    1.99
  -2 -44   1   -1.72    1.51
   2 -44  -1    0.73    1.39
   2 -44  -1   -1.67    1.35
  -2 -44   1   -2.56    1.44
   2  44   1    1.25    1.62
  -2  44  -1    2.40    1.54
   4  44  -1    2.48    1.79
  -4 -44  -1   -3.81    2.12
   4 -44   1    0.16    2.32
  -4 -44  -1   -0.15    6.16
  -4  44   1    0.01    1.75
  -4  44   1    4.80    1.95
   4 -44   1   -0.36    2.98
   4 -44  -1   -3.06    2.13
  -4  44  -1   -4.17    1.85
  -4  44  -1   -0.06    1.91
  -4 -44   1   -8.03    6.12
   4 -44  -1    2.65    2.93
  -4  44  -1    1.79    1.93
   4  44   1   -1.66    2.13
   4 -44  -1    0.66    2.45
  -4 -44   1    1.32    2.13
  -1  45   1   -2.56    1.37
  -1 -45  -1    0.97    1.28
   1  45  -1   -0.34    2.92
   1  45  -1    1.37    1.87
   1 -45   1    0.34    1.73
   1 -45   1    0.00    1.50
  -1 -45  -1   -8.15    3.71
  -1 -45  -1    0.85    1.40
  -1  45   1    3.09    2.45
   1  45  -1    0.85    1.17
  -1  45   1    2.21    1.33
   1  45   1   -0.70    1.44
   1 -45  -1   -1.88    1.43
   1 -45  -1   -2.08    1.29
   1  45   1   -0.75    1.41
  -1 -45   1    1.82    1.65
  -1  45  -1   -0.67    2.03
  -1 -45   1    4.20    4.50
   1 -45  -1   -3.49    1.25
  -1  45  -1    0.69    1.36
  -1  45  -1    1.58    1.48
  -3  45   1    2.65    2.03
  -3  45   1    1.86    1.92
   3 -45   1    0.97    1.93
   3 -45   1   -2.76    2.61
  -3  45   1   -2.76    1.42
  -3 -45  -1   -1.45    1.85
  -3 -45  -1   -0.59    6.30
   3  45  -1   -0.29    1.43
   3 -45  -1    5.16    2.69
  -3  45  -1    0.77    1.80
  -3  45  -1   -0.37    1.74
   3  45   1    3.60    2.17
   3 -45  -1   -2.59    1.84
  -3 -45   1   -7.82    6.50
   3  45   1    2.85    1.84
  -3 -45   1    1.71    1.81
   3 -45  -1   -0.70    1.65
  -3  45  -1   -0.88    1.98
   0 -46  -1   18.64    2.94
   0  46   1   24.23    2.73
   0 -46  -1   25.20    2.75
   0  46   1   25.35    2.95
   0 -46   1   22.37    3.25
   0  46  -1   20.89    2.68
   0  46  -1   16.98    2.69
  -2  46   1   18.40    2.65
   2  46  -1    9.62    3.01
   2  46  -1   17.62    2.40
   2 -46   1   21.49    2.89
  -2  46   1   16.97    2.72
  -2  46   1   13.81    3.13
   2 -46   1   18.42    3.32
  -2 -46  -1   18.07    5.68
  -2 -46  -1   16.11    2.70
  -2 -46  -1   17.91    2.44
   2  46   1   13.44    2.66
  -2 -46   1   16.64    6.76
  -2  46  -1   19.54    2.94
   2  46   1   15.00    2.24
  -2  46  -1   14.92    3.09
   2 -46  -1   16.81    2.52
  -2  46  -1   19.61    2.64
  -2 -46   1   14.58    2.28
  -2 -46   1   18.00    2.90
   2 -46  -1    9.70    2.80
   2 -46  -1   19.11    2.49
  -1  47   1   -1.39    1.39
   1  47  -1    1.71    2.09
  -1 -47  -1    0.10    1.64
   1 -47   1   -1.62    1.99
  -1  47   1    0.79    1.55
   1 -47   1    1.61    1.86
  -1 -47  -1    1.96    4.29
   1  47  -1    2.92    1.45
  -1  47   1   -0.72    2.33
  -1 -47  -1    1.32    1.47
   1 -47  -1   -1.47    1.52
  -1 -47   1   -7.78    4.93
  -1  47  -1    2.22    1.46
   1  47   1   -0.37    1.66
   1 -47  -1    0.48    1.65
  -1  47  -1   -2.28    1.67
   1 -47  -1   -0.68    1.61
  -1  47  -1    0.02    2.24
  -1 -47   1    1.06    1.74
   1  47   1    2.41    1.68
   3 -47   1   -0.14    2.14
  -3 -47  -1   12.57    7.06
   3 -47   1    0.82    2.97
  -3  47   1   -4.30    2.10
   3  47  -1   -1.11    1.64
  -3  47   1    1.02    1.67
  -3 -47  -1    1.37    2.03
  -3  47   1    2.01    2.14
  -3 -47   1    0.56    1.97
  -3  47  -1    0.69    1.91
  -3  47  -1   -0.30    1.92
  -3 -47   1   -5.33    7.14
   3  47   1    6.81    2.57
   3  47   1   -0.73    1.95
  -3  47  -1    1.94    2.37
   3 -47  -1    1.18    2.76
   3 -47  -1   -0.08    2.27
   3 -47  -1   -1.24    1.79
   0 -48  -1   -0.26    1.72
   0  48  -1    0.54    1.95
   0 -48  -1    1.16    1.74
   0  48   1    0.57    1.58
   0  48  -1    2.22    1.52
   0 -48   1   -0.60    1.91
   0  48   1   -1.80    1.59
  -2 -48  -1   -1.39    1.83
  -2 -48  -1    0.07    5.81
   2  48  -1    1.79    2.97
   2  48  -1    0.08    1.41
  -2  48   1   -1.27    2.55
   2 -48   1    4.33    2.90
  -2  48   1    0.40    1.93
  -2 -48  -1   -0.36    1.77
   2 -48   1    2.51    2.00
  -2  48   1    0.25    1.51
   2  48   1    2.37    1.80
  -2 -48   1   -1.36    1.85
  -2 -48   1   -1.68    6.45
  -2  48  -1    1.79    1.76
   2  48   1    0.19    2.04
  -2  48  -1    3.14    2.59
   2 -48  -1    1.85    2.04
   2 -48  -1    0.72    1.79
   2 -48  -1   -1.91    2.60
  -2  48  -1    2.90    1.69
   1 -49   1   13.57    2.57
  -1  49   1   10.16    2.20
  -1 -49  -1    2.94    4.65
  -1  49   1   11.26    3.37
   1 -49   1   14.28    2.98
  -1 -49  -1    6.76    2.04
  -1  49   1   13.36    2.26
   1  49  -1   10.29    2.09
  -1 -49  -1   12.57    2.51
   1  49  -1   12.35    2.94
  -1  49  -1   19.92    2.55
   1  49   1   13.33    2.19
   1  49   1   10.11    2.39
   1 -49  -1    9.42    2.17
  -1 -49   1   13.05    2.60
  -1  49  -1   15.85    2.59
   1 -49  -1   13.43    2.56
   0 -50  -1    0.88    1.85
   0  50  -1    2.42    1.60
   0 -50   1    1.86    2.14
   0 -50  -1    0.33    1.93
   0  50   1    1.36    1.69
   0  50   1   -1.32    1.83
   0  50  -1    1.53    2.33
   0   0   2  876.42   51.60
   0   0   2  877.68   51.46
   0   0   2  919.35   51.73
   0   0  -2  972.77   50.96
   0   0  -2  900.31   51.12
   0   0   2  899.31   50.86
   0   0  -2  892.89   51.70
   0   0  -2  976.73   50.93
   0   0  -2  861.77   50.90
   0   0  -2  923.31   51.67
   0   0  -2  911.60   51.51
   0   0   2  903.20   50.84
  -2   0   2  694.40   38.10
  -2   0  -2  699.63   38.32
  -2   0  -2  708.39   38.25
   2   0   2  633.50   38.01
   2   0   2  680.09   39.55
   2   0   2  662.42   38.16
  -2   0   2  690.71   39.47
  -2   0   2  720.87   40.09
   2   0   2  645.45   38.03
  -2   0  -2  730.26   38.14
   2   0  -2  615.88   38.10
   2   0   2  654.94   39.68
   2   0  -2  676.06   38.06
   2   0  -2  693.69   39.92
  -2   0  -2  662.08   38.28
  -2   0  -2  601.00   39.18
  -2   0   2  685.18   38.15
   2   0  -2  678.48   38.10
  -2   0   2  678.13   37.91
  -2   0  -2  627.03   39.00
   2   0  -2  682.67   39.85
  -2   0  -2  643.44   37.96
  -2   0   2  708.07   38.06
   2   0   2  669.33   37.99
  -2   0  -2  683.11   38.54
   2   0   2  660.81   38.06
   2   0   2  702.41   38.04
   2   0  -2  700.26   39.60
  -2   0   2  700.58   39.79
   4   0  -2  316.94   17.62
   4   0  -2  251.63   20.68
   4   0   2  336.14   18.08
  -4   0  -2  300.76   17.89
   4   0   2  294.28   18.01
   4   0   2  323.90   17.91
   4   0   2  243.45   21.03
  -4   0   2  282.58   22.72
   4   0  -2  324.64   18.09
  -4   0   2  328.09   18.55
  -4   0  -2  297.33   18.91
  -4   0  -2  294.98   18.19
   4   0   2  311.16   18.47
  -4   0   2  311.60   18.40
  -4   0  -2  294.60   18.12
   4   0   2  323.34   17.94
   4   0  -2  324.45   17.55
  -4   0   2  325.29   17.92
   4   0  -2  297.28   24.25
  -4   0  -2  327.39   18.01
  -4   0  -2  256.20   21.26
  -4   0  -2  271.73   21.02
  -4   0   2  315.78   18.24
  -4   0   2  288.32   22.12
   4   0  -2  312.24   18.22
  -4   0  -2  296.08   18.98
  -4   0   2  315.38   22.70
  -6   0  -2  112.44    8.79
  -6   0  -2  101.60    8.01
   6   0  -2  113.66    7.89
  -6   0   2  119.40    8.51
   6   0   2  123.72    7.75
   6   0   2  120.19    7.69
   6   0  -2  119.32    7.73
   6   0   2  126.54    7.94
   6   0   2  123.92    7.99
   6   0  -2  115.88    7.43
  -6   0   2  119.61    8.88
   6   0  -2  116.03    7.93
   6   0   2  118.05    7.84
  -6   0   2  125.96    8.27
  -6   0   2  113.40    9.09
  -6   0  -2  125.41    8.59
   6   0  -2  122.55    7.39
  -8   0  -2   41.35    4.81
  -8   0   2   31.00    4.15
   8   0   2   37.19    3.60
   8   0   2   33.96    3.33
   8   0  -2   37.01    3.79
  -8   0   2   28.96    4.22
   8   0  -2   33.92    3.69
   8   0   2   48.79    3.88
   1   1  -2    3.23    1.09
  -1   1   2    0.62    1.03
   1  -1   2    0.89    0.79
   1  -1   2    1.20    0.81
   1  -1   2    1.98    0.96
   1   1  -2    2.11    1.12
   1  -1   2    1.28    0.32
  -1   1   2    1.40    0.30
   1  -1   2    1.07    0.32
  -1  -1  -2    1.41    0.42
  -1  -1  -2    2.07    0.45
   1   1  -2    1.92    0.43
  -1   1   2    2.14    0.32
  -1   1   2    1.58    0.34
   1   1  -2    1.95    0.99
  -1  -1  -2    1.26    0.87
  -1  -1  -2    2.17    0.94
  -1  -1  -2    1.78    0.52
  -1  -1  -2    1.79    0.61
  -1   1   2    2.58    1.14
  -1   1   2    1.42    1.03
   1  -1   2    1.60    0.31
   1  -1   2    1.71    0.31
  -1  -1  -2    2.21    0.97
  -1  -1  -2    1.30    0.33
  -1   1  -2    1.68    0.53
  -1  -1   2    1.61    0.33
   1   1   2    1.48    0.30
   1   1   2    2.06    0.35
  -1   1  -2    1.34    0.37
  -1   1  -2    2.50    0.94
  -1  -1   2    0.90    1.04
   1   1   2    1.19    0.26
   1   1   2    1.01    0.25
  -1   1  -2    0.98    0.41
  -1   1  -2    2.13    0.45
  -1  -1   2    1.44    0.28
  -1  -1   2    1.15    0.30
  -1  -1   2    0.67    1.00
   1   1   2    2.45    0.98
  -1   1  -2    1.76    0.92
  -1   1  -2    1.80    0.41
   1  -1  -2    1.25    1.01
   1   1   2    2.36    0.98
   1   1   2    2.47    1.04
  -1   1  -2    2.02    0.81
   1  -1  -2    1.10    0.98
  -1  -1   2    0.95    0.98
   1  -1  -2    2.93    1.42
   1  -1  -2    1.02    0.34
   1  -1  -2    1.95    0.39
  -3   1   2   -1.82    2.99
  -3  -1  -2    1.73    2.51
   3  -1   2    0.29    0.64
  -3  -1  -2    0.50    0.94
   3   1  -2   -0.66    2.46
   3   1  -2   -1.88    2.44
   3  -1   2    0.96    0.51
  -3   1   2    1.22    3.10
   3   1  -2    0.46    0.42
   3   1  -2   -0.62    0.57
  -3  -1  -2   -0.62    1.08
   3  -1   2    0.61    0.48
  -3   1   2    0.40    0.51
  -3   1   2   -2.07    2.98
  -3  -1  -2    1.04    0.54
   3   1  -2    1.40    0.66
  -3   1   2    0.19    0.50
  -3  -1  -2    0.67    0.62
   3   1  -2    1.11    3.91
  -3  -1  -2    1.64    2.48
  -3  -1  -2   -0.25    0.44
   3  -1   2    0.68    0.60
   3  -1   2   -1.69    2.47
  -3   1   2    0.32    0.48
  -3  -1  -2    1.82    2.91
   3  -1   2   -0.42    2.95
  -3  -1  -2   -5.12    2.57
   3  -1   2    1.08    0.56
  -3   1   2    0.87    0.42
  -3   1  -2   -5.52    2.28
   3   1   2    1.08    0.51
   3  -1  -2    0.71    2.47
   3  -1  -2   -4.31    2.38
   3   1   2    0.34    2.56
   3  -1  -2    0.26    0.48
  -3  -1   2    5.60    3.18
  -3   1  -2    0.33    0.87
  -3  -1   2    0.29    0.51
  -3   1  -2    0.91    2.72
  -3  -1   2    0.91    0.57
  -3   1  -2    0.68    0.56
  -3  -1   2    1.11    0.44
   3  -1  -2    0.09    0.60
   3  -1  -2    0.76    0.57
  -3   1  -2    0.87    2.80
  -3  -1   2   -0.15    3.12
  -3   1  -2    0.22    0.66
  -3   1  -2    0.28    2.42
  -3   1  -2   -0.52    0.81
   3  -1  -2    0.74    0.52
   3   1   2    0.91    0.58
   3   1   2    1.11    0.70
  -3  -1   2    0.10    0.42
  -3   1  -2   -0.17    0.53
  -3  -1   2    1.16    2.99
   3   1   2   -0.04    0.41
   3   1   2    0.44    0.56
   3   1   2    0.26    0.49
  -3   1  -2    0.14    0.74
   3   1   2    3.86    3.13
   3  -1  -2    1.32    3.66
  -5  -1  -2   -1.28    0.73
   5  -1   2    0.52    0.86
   5   1  -2   -0.07    0.83
  -5  -1  -2   -0.89    1.75
  -5  -1  -2    2.72    1.78
   5   1  -2   -0.85    0.68
  -5   1   2    1.26    1.00
  -5   1   2   -0.29    1.42
  -5   1   2    1.24    1.04
  -5  -1  -2    0.32    1.39
  -5   1   2    1.06    1.44
   5  -1   2   -0.05    0.73
   5   1  -2   -0.86    0.76
   5  -1   2   -0.16    0.78
   5   1  -2    0.49    0.87
  -5   1   2    0.13    1.27
  -5   1   2    0.01    1.08
   5  -1   2   -0.76    0.60
   5  -1  -2    0.70    0.77
  -5   1  -2    0.30    0.76
   5   1   2    0.02    0.62
  -5   1  -2    1.61    1.41
   5  -1  -2    0.32    0.84
  -5  -1   2   -0.22    0.87
  -5  -1   2    0.86    1.15
  -5  -1   2   -0.16    0.96
   5  -1  -2    1.03    0.98
  -5   1  -2   -2.65    1.42
   5   1   2    0.63    0.75
  -5  -1   2   -0.09    1.18
   5  -1  -2    0.79    0.72
   5   1   2   -0.44    0.53
  -5  -1   2   -0.70    1.35
  -5   1  -2    0.25    0.67
  -5   1  -2    2.62    1.46
   5   1   2   -1.49    0.74
  -5  -1   2   -1.31    1.47
   7   1  -2    0.11    1.42
   7  -1   2    0.21    1.05
  -7  -1  -2    4.07    2.69
   7   1  -2   -0.27    1.88
   7   1  -2    3.19    1.91
  -7   1   2    0.82    3.87
   7   1  -2   -1.13    1.28
  -7  -1  -2   -0.21    1.72
  -7   1   2    0.18    2.02
   7  -1   2   -1.06    1.27
  -7   1   2   -1.36    1.56
   7  -1   2   -1.86    1.10
   7  -1   2   -0.83    1.14
  -7  -1   2   -2.25    2.01
   7  -1  -2    0.35    1.37
   7   1   2   -0.05    1.26
   7  -1  -2    3.20    1.83
  -7   1  -2    0.33    1.83
   7   1   2   -0.11    1.25
  -7   1  -2    0.16    2.77
   7   1   2    0.29    1.22
  -7  -1   2    0.51    1.68
   7  -1  -2    0.83    1.25
   7   1   2    0.55    1.09
  -7  -1   2    6.07    3.77
   7  -1  -2   -0.33    1.67
   0  -2  -2    2.18    0.59
   0   2  -2    1.35    0.29
   0  -2  -2    0.93    0.29
   0  -2   2    1.49    0.26
   0  -2  -2    1.13    0.34
   0  -2   2    0.79    0.65
   0   2   2    1.22    0.78
   0   2  -2    1.29    0.30
   0   2  -2    1.71    0.74
   0   2  -2    1.37    0.67
   0   2   2    0.82    0.91
   0  -2   2    0.55    0.65
   0   2   2    0.94    0.21
   0  -2  -2    0.48    0.70
   0  -2  -2    1.25    0.72
   0  -2   2    1.31    0.67
   0  -2   2    1.35    0.26
   0   2   2    0.90    0.24
   0  -2  -2    1.64    0.86
   0   2  -2    0.82    0.28
   0   2  -2    0.95    0.29
   0   2   2    1.33    0.85
   0   2  -2    0.85    0.64
  -2  -2  -2    0.70    0.47
   2  -2   2    0.59    0.31
  -2   2   2    0.45    1.59
   2   2  -2    0.61    0.47
  -2   2   2    0.40    0.32
   2   2  -2    0.15    1.34
  -2   2   2    1.77    1.67
   2  -2   2    0.94    1.57
  -2  -2  -2   -0.30    1.32
   2  -2   2    0.26    0.53
  -2   2   2    0.90    0.38
   2  -2   2    0.47    0.41
  -2   2   2   -0.20    1.72
   2  -2   2    0.61    0.38
  -2  -2  -2    1.82    1.50
   2   2  -2    0.69    0.46
  -2  -2  -2    0.89    0.56
  -2   2   2    0.40    0.32
  -2  -2  -2    0.85    0.36
  -2  -2  -2    1.09    0.67
  -2   2   2    1.28    0.34
   2   2  -2    1.50    1.75
   2  -2   2    2.79    1.60
   2   2  -2    1.97    1.46
   2  -2   2    0.56    0.49
  -2  -2  -2    2.61    1.57
  -2  -2  -2    0.46    0.36
   2  -2   2    0.40    0.32
  -2  -2  -2    0.51    1.35
   2   2  -2    0.49    0.47
  -2  -2  -2    0.34    0.70
  -2   2  -2    0.45    0.54
   2  -2  -2    1.44    1.57
   2  -2  -2    0.58    0.61
   2   2   2    0.73    0.32
   2   2   2    0.29    1.69
   2   2   2   -0.60    1.37
   2   2   2    0.03    0.30
  -2  -2   2    0.47    0.37
  -2   2  -2    0.45    1.16
   2  -2  -2   -0.14    1.52
   2   2   2    0.78    0.39
  -2  -2   2    0.57    1.73
  -2   2  -2    0.08    0.39
  -2   2  -2    0.44    0.46
   2  -2  -2    0.55    0.35
  -2  -2   2    1.10    0.31
   2   2   2    0.64    0.37
   2   2   2    0.21    0.31
  -2  -2   2   -0.93    1.53
  -2  -2   2   -0.94    1.49
   2   2   2    0.07    0.52
  -2   2  -2    0.54    0.44
   2  -2  -2   -1.58    1.64
  -2   2  -2    0.96    0.53
  -2   2  -2   -2.44    1.32
  -2   2  -2    0.02    1.18
  -2   2  -2    1.30    1.44
  -2  -2   2    1.41    0.43
   2  -2  -2    1.19    0.46
  -2  -2   2    0.54    0.31
  -4  -2  -2    5.91    5.35
   4  -2   2    0.33    0.66
  -4  -2  -2    0.77    1.06
   4   2  -2    0.07    0.55
   4   2  -2   -0.47    0.57
  -4   2   2    0.46    0.74
   4  -2   2    0.09    0.59
  -4   2   2   -0.32    0.82
   4   2  -2   -0.39    4.28
   4  -2   2   -0.05    0.53
  -4   2   2   -0.88    0.72
  -4   2   2    7.10    6.43
   4   2  -2   -1.67    4.04
  -4   2   2   -6.34    6.09
  -4  -2  -2    1.33    1.43
   4  -2   2   -2.32    4.24
  -4   2   2    3.28    5.07
  -4  -2  -2   -0.14    4.93
   4  -2   2    0.42    0.50
  -4  -2  -2    0.83    0.71
   4   2  -2    0.44    0.74
  -4  -2  -2   -4.13    4.86
  -4  -2  -2   -1.10    0.55
   4   2  -2    0.02    0.69
  -4  -2  -2   -0.70    1.19
   4  -2   2    1.19    1.07
  -4  -2  -2    0.15    1.06
  -4   2   2    0.43    0.80
  -4  -2  -2   -1.57    5.20
   4   2  -2    4.34    6.99
   4   2   2    0.30    0.95
  -4   2  -2    0.60    1.27
  -4  -2   2   -0.58    0.70
  -4   2  -2    0.66    1.09
   4  -2  -2    0.28    0.59
   4   2   2   -0.82    4.78
  -4   2  -2    0.35    1.06
  -4  -2   2    0.78    1.03
   4  -2  -2   -1.07    0.69
  -4   2  -2   -1.17    0.54
  -4   2  -2   -0.55    0.64
   4   2   2    0.01    0.48
  -4   2  -2   -6.84    4.54
   4  -2  -2    2.38    6.62
   4   2   2    0.01    0.68
  -4  -2   2    0.73    6.39
   4   2   2   -0.06    0.60
   4  -2  -2    1.46    4.11
   4  -2  -2    0.31    0.56
  -4   2  -2   -0.50    4.55
  -4  -2   2   -4.74    6.31
  -4   2  -2    1.42    1.08
   4   2   2    5.84    6.26
   4  -2  -2    1.13    4.32
  -4  -2   2   -0.71    0.71
   4  -2  -2   -0.08    0.65
   4   2   2    0.16    0.52
  -4  -2   2    0.43    0.69
  -4  -2   2   -0.30    0.75
  -4  -2   2   -0.44    5.14
   6  -2   2    1.02    1.03
   6   2  -2   -0.59    1.14
   6  -2   2    0.38    0.88
   6  -2   2    1.16    0.88
  -6   2   2    2.99    1.86
  -6   2   2   -1.93    2.35
   6   2  -2   -0.43    1.17
  -6   2   2   -3.77    2.14
   6   2  -2   -1.30    1.02
   6  -2   2    1.27    1.05
   6   2  -2   -0.03    1.08
  -6  -2  -2    0.26    1.80
  -6  -2  -2    0.32    1.82
   6   2  -2   -0.27    1.09
  -6  -2  -2   -1.89    1.43
  -6   2   2   -0.74    1.16
  -6  -2   2    0.47    1.25
   6  -2  -2    0.76    1.21
  -6   2  -2    0.30    1.80
   6  -2  -2   -0.72    1.20
   6  -2  -2   -2.26    0.89
   6   2   2   -0.77    1.42
   6  -2  -2   -0.63    0.99
  -6   2  -2   -1.23    1.93
   6   2   2    0.01    1.07
  -6  -2   2   -0.32    2.18
  -6   2  -2    0.06    1.63
  -6  -2   2    0.97    2.27
   6   2   2    0.16    0.97
   6   2   2   -0.26    0.89
  -6   2  -2   -1.18    0.92
   6  -2  -2    0.09    1.07
  -6  -2   2    2.59    1.71
   6   2   2   -0.19    0.80
   8   2  -2    1.69    1.83
  -8  -2  -2   -1.23    2.22
   8  -2   2   -1.77    1.38
   8  -2   2   -1.23    1.31
  -8   2   2    2.36    2.54
   8  -2   2   -1.45    1.54
   8   2  -2    2.28    1.75
  -8   2   2    3.47    2.31
   8  -2  -2    0.31    1.68
   8   2   2    1.33    1.64
  -8  -2   2    0.80    2.17
  -8  -2   2   -2.47    2.47
   8   2   2    2.95    1.49
  -8   2  -2    4.50    2.45
   8  -2  -2    0.38    1.69
   8   2   2   -1.10    1.53
   1  -3   2    8.70    0.86
   1  -3   2   10.13    0.79
  -1   3   2   10.03    1.81
  -1  -3  -2   10.81    0.90
   1   3  -2    9.47    1.74
  -1   3   2   11.30    0.91
  -1   3   2   11.30    0.88
   1  -3   2   11.01    1.68
   1  -3   2   10.97    0.85
   1  -3   2   10.61    0.91
  -1  -3  -2    7.30    1.54
  -1  -3  -2   15.32    2.18
   1   3  -2    9.46    1.64
   1   3  -2   10.34    0.85
  -1   3   2    9.62    1.87
  -1  -3  -2   10.99    0.93
  -1  -3  -2   11.14    1.18
   1   3  -2   12.46    1.91
  -1   3   2   11.06    0.84
   1   3  -2   10.24    0.93
  -1  -3  -2   11.39    1.20
  -1  -3  -2   10.94    0.93
  -1   3   2   16.00    2.34
  -1  -3  -2   13.77    2.00
   1   3   2   11.06    1.72
   1   3   2    9.62    0.83
   1  -3  -2   14.18    2.27
  -1   3  -2   10.00    1.46
  -1   3  -2   10.71    1.05
   1  -3  -2   10.00    0.89
  -1  -3   2   11.46    1.93
  -1  -3   2   10.19    1.70
   1  -3  -2   10.92    0.87
  -1  -3   2   11.25    0.85
  -1  -3   2   10.55    1.71
   1   3   2    9.64    0.80
   1   3   2    8.86    1.82
  -1   3  -2   10.70    1.52
  -1   3  -2    9.88    0.91
   1  -3  -2   14.56    2.10
   1   3   2   11.39    0.85
  -1   3  -2   11.18    0.95
   1   3   2   10.54    0.79
   1   3   2   10.92    1.85
   1  -3  -2   10.64    1.94
  -1   3  -2    9.44    1.04
  -1  -3   2    9.73    0.79
  -1  -3   2   10.09    0.89
  -1   3  -2    9.76    1.04
  -3  -3  -2    5.42    2.98
  -3  -3  -2    7.95    1.66
  -3  -3  -2    6.74    1.86
   3   3  -2    8.75    4.52
   3  -3   2    6.87    1.15
   3   3  -2    9.84    1.29
  -3   3   2    7.29    1.18
   3  -3   2    8.17    1.18
  -3  -3  -2    6.78    1.11
   3  -3   2    7.86    3.29
   3  -3   2   10.81    1.64
  -3   3   2   11.21    3.55
  -3  -3  -2    9.60    3.32
   3  -3   2    9.35    1.35
  -3  -3  -2    7.80    1.10
  -3   3   2   10.27    3.61
   3   3  -2    3.44    2.77
   3   3  -2    7.08    0.77
  -3  -3  -2    7.05    1.14
  -3  -3  -2    7.07    3.06
   3   3  -2    5.65    1.10
   3   3  -2    5.39    2.82
  -3  -3  -2    7.27    3.01
  -3   3   2    7.34    1.08
  -3   3   2    7.34    0.97
  -3   3   2   10.81    3.64
   3  -3   2    6.91    3.54
  -3   3   2   10.78    1.15
   3  -3   2    6.19    1.01
   3   3   2   10.61    4.06
  -3   3  -2    2.99    2.46
   3  -3  -2    4.48    2.56
   3   3   2    5.52    1.01
   3  -3  -2    7.68    2.90
  -3  -3   2    8.10    3.50
  -3  -3   2    8.30    1.21
  -3   3  -2    7.68    1.12
  -3   3  -2    7.98    1.23
  -3  -3   2    5.31    1.15
   3  -3  -2    6.81    1.12
  -3   3  -2    7.49    1.44
  -3  -3   2    7.81    1.11
   3   3   2    7.21    1.09
   3  -3  -2    6.35    0.94
  -3   3  -2    4.16    2.73
  -3   3  -2    8.16    1.18
  -3   3  -2    8.87    1.40
  -3  -3   2    7.79    3.47
   3  -3  -2    7.36    1.32
  -3  -3   2    5.95    0.82
  -3   3  -2    7.79    1.40
   3   3   2    1.81    2.63
   3   3   2    7.47    1.38
   3   3   2    6.88    1.05
   3   3   2    7.84    1.18
   3  -3  -2    6.78    0.92
   3  -3  -2    8.69    3.68
  -3   3  -2    1.35    2.82
  -3   3  -2    4.68    2.99
   3   3   2    7.29    1.09
  -3  -3   2    7.62    3.52
  -5  -3  -2    2.55    1.98
  -5   3   2    6.64    9.60
   5   3  -2    3.28    0.94
  -5   3   2    1.42    1.18
  -5   3   2    4.51    2.04
   5  -3   2    5.17    1.21
   5  -3   2    4.31    1.15
   5   3  -2    1.37    0.90
  -5   3   2    3.72    1.35
   5  -3   2    5.59    1.14
  -5  -3  -2    3.05    1.56
   5   3  -2    4.53    1.22
   5   3  -2    5.48    1.24
  -5   3   2  -11.96   13.24
  -5   3   2    4.87    1.16
  -5   3   2    4.86    1.56
  -5  -3  -2    5.81    2.14
  -5   3   2    0.44   12.45
   5   3  -2    5.08    1.16
  -5  -3  -2    3.87    1.01
   5  -3   2    6.03    1.05
   5   3   2    5.74    1.19
  -5   3  -2    6.39    1.61
   5  -3  -2    3.42    1.31
  -5  -3   2    5.59    1.77
  -5   3  -2    4.64    1.79
   5  -3  -2    5.15    1.29
   5  -3  -2    8.08    8.43
   5   3   2    4.52    1.30
  -5  -3   2    4.13    1.92
  -5   3  -2    7.12    2.11
   5  -3  -2    2.41    6.99
  -5  -3   2    4.63    1.64
   5  -3  -2   25.12   16.34
  -5   3  -2    2.20    0.92
   5   3   2    4.00    1.12
  -5  -3   2    6.67    1.59
   5   3   2    5.76    1.36
   5  -3  -2    4.93    1.16
   5  -3  -2    6.19    1.03
  -5   3  -2    3.72    0.87
   5   3   2    3.75    1.05
  -7  -3  -2    2.79    2.58
   7  -3   2    2.99    1.40
  -7   3   2    1.17    2.14
  -7  -3  -2    1.29    1.91
  -7  -3  -2    1.15    2.33
   7   3  -2    2.07    1.52
   7  -3   2    2.35    1.37
  -7   3   2    1.84    1.81
   7   3  -2    1.09    1.43
   7  -3   2   -0.08    1.11
   7  -3   2    4.07    1.45
   7   3   2    1.57    1.27
  -7  -3   2    1.48    1.64
   7  -3  -2    1.15    1.83
  -7   3  -2    0.27    1.90
   7   3   2    3.71    1.34
  -7  -3   2   -1.37    3.32
  -7  -3   2    1.59    2.12
   7  -3  -2    1.50    1.76
   7   3   2    1.13    1.35
   7   3   2    1.28    1.11
   7  -3  -2    1.22    1.37
   7  -3  -2    0.53    1.22
   0   4   2    0.16    0.14
   0   4  -2    0.26    0.22
   0   4  -2    0.68    0.60
   0   4   2    0.27    0.18
   0   4  -2    0.32    0.22
   0   4   2    0.08    0.76
   0  -4  -2   -0.36    0.71
   0   4   2    0.46    0.20
   0   4  -2    0.83    0.58
   0  -4  -2    0.58    0.25
   0   4   2    0.20    0.15
   0  -4   2    0.58    0.56
   0  -4   2    0.59    0.55
   0   4  -2   -0.11    0.28
   0  -4  -2    0.93    0.90
   0   4   2   -0.76    0.88
   0  -4   2    0.38    0.16
   0  -4  -2    0.34    0.42
   0   4   2    0.46    0.86
   0   4  -2    0.24    0.54
   0  -4  -2    0.50    0.24
   0  -4   2    0.81    0.65
   0  -4   2    0.31    0.15
   0   4  -2    0.22    0.19
   0  -4  -2    0.17    0.80
   2   4  -2    0.63    0.44
  -2  -4  -2    0.63    0.63
  -2  -4  -2   -0.42    1.37
   2  -4   2    0.38    0.37
  -2   4   2    0.02    0.27
  -2  -4  -2    1.11    1.38
  -2   4   2    0.10    0.26
  -2  -4  -2    0.98    1.49
  -2  -4  -2    0.49    0.53
   2   4  -2    2.11    1.87
  -2   4   2    3.36    1.85
   2  -4   2   -0.23    0.37
   2   4  -2   -0.46    1.67
   2  -4   2    0.46    0.47
  -2   4   2    0.91    1.74
   2  -4   2    2.42    1.49
   2   4  -2   -0.17    0.34
   2   4  -2   -0.07    0.51
   2  -4   2    0.56    1.45
   2  -4   2    0.21    0.35
  -2  -4  -2    0.29    0.79
  -2   4   2    1.33    1.74
  -2  -4  -2   -0.21    0.28
   2   4  -2    0.63    1.71
  -2  -4  -2    0.06    1.41
   2  -4   2    0.16    0.27
   2  -4   2    0.51    0.59
  -2  -4  -2   -0.10    0.36
  -2   4   2    0.23    0.33
  -2   4   2    0.09    0.29
  -2  -4   2    0.88    1.62
   2   4   2    0.05    0.28
  -2  -4   2   -0.36    1.78
  -2  -4   2    0.27    0.24
  -2   4  -2    0.26    0.40
  -2  -4   2    0.22    0.34
   2  -4  -2   -0.36    0.52
  -2   4  -2    0.24    0.61
  -2   4  -2   -1.14    1.51
  -2   4  -2    0.46    0.46
   2   4   2   -0.04    0.28
   2   4   2    0.62    0.30
   2   4   2   -0.05    0.23
  -2  -4   2    0.08    1.54
  -2   4  -2    0.32    1.57
   2   4   2    0.27    0.52
  -2  -4   2    0.19    0.31
   2   4   2    0.29    0.31
   2  -4  -2    0.15    1.42
  -2  -4   2    0.59    0.42
  -2   4  -2   -1.83    1.12
   2  -4  -2    0.87    1.41
   2   4   2   -0.92    1.64
  -2   4  -2   -0.89    1.11
  -2   4  -2    0.45    0.49
  -2   4  -2    0.66    0.43
  -2   4  -2   -0.62    0.33
   2  -4  -2    0.07    0.35
   2   4   2    0.90    1.57
   2  -4  -2    1.30    1.58
   2  -4  -2    0.49    0.47
   4   4  -2    0.03    0.71
  -4   4   2   -5.23    5.25
   4  -4   2    0.58    0.52
   4   4  -2    0.16    0.58
  -4   4   2   -1.24    0.62
  -4   4   2    0.02    0.68
  -4   4   2    6.60    6.23
  -4   4   2    0.41    0.95
  -4  -4  -2   -0.20    1.51
  -4  -4  -2    3.12    5.27
  -4  -4  -2   -0.66    5.09
  -4  -4  -2   -0.22    0.65
   4   4  -2   -5.60    3.68
   4  -4   2    0.30    0.59
   4  -4   2    1.38    0.99
  -4  -4  -2    2.24    5.31
   4   4  -2   -1.20    0.54
  -4  -4  -2    0.98    1.09
   4   4  -2   -0.60    0.70
   4  -4   2   -1.31    0.50
  -4   4   2   -7.82    6.08
  -4  -4  -2    0.21    5.40
   4   4  -2    1.01    0.78
   4   4  -2    2.30    4.16
   4  -4   2   -3.26    4.27
  -4   4   2    1.06    0.88
  -4  -4  -2   -0.80    1.33
   4   4  -2   -4.85    6.83
   4  -4   2    1.33    0.73
  -4   4  -2   -0.32    1.03
  -4  -4   2    0.41    0.66
   4   4   2   -0.03    0.63
  -4  -4   2   -0.74    5.25
  -4   4  -2   -0.73    1.20
  -4  -4   2   -0.63    0.66
   4   4   2   -0.40    0.58
  -4   4  -2    0.40    0.55
   4   4   2    4.88    6.15
  -4   4  -2    1.28    1.10
   4  -4  -2   -2.53    4.21
  -4   4  -2    0.00    1.04
   4  -4  -2    0.16    0.76
  -4  -4   2   -6.19    5.95
  -4  -4   2    0.32    0.76
   4   4   2    2.52    5.33
   4   4   2   -0.25    0.64
  -4  -4   2   -0.29    0.80
   4   4   2   -0.14    0.53
   4   4   2    0.78    0.71
   4  -4  -2    1.45    0.77
   4   4   2   -0.14    0.91
   4  -4  -2    0.15    0.62
  -4  -4   2    8.42    6.51
   4  -4  -2    6.37    6.90
   4  -4  -2    5.71    4.25
  -4  -4   2    1.19    1.04
   4  -4  -2   -1.06    0.55
  -4   4  -2    0.55    0.67
   6   4  -2    0.44    1.16
   6  -4   2    0.90    0.89
   6  -4   2    0.10    0.85
   6   4  -2    1.17    1.09
  -6  -4  -2   -1.31    1.62
   6   4  -2   -0.56    1.12
   6  -4   2   -0.67    1.01
  -6   4   2   -2.67    2.26
  -6  -4  -2    0.15    1.96
  -6   4   2   -1.33    1.50
   6   4  -2   -0.30    1.06
   6  -4   2   -0.18    0.94
   6   4  -2   -2.24    1.03
  -6   4   2   -1.00    1.22
   6  -4  -2    1.60    1.17
  -6   4  -2    1.41    1.63
   6   4   2    0.07    1.07
   6   4   2   -0.67    0.97
  -6  -4   2    1.03    2.26
   6  -4  -2    1.25    1.03
   6   4   2    1.33    1.05
  -6  -4   2    1.74    2.23
  -6   4  -2   -0.17    0.88
  -6   4  -2    0.10    2.10
  -6  -4   2   -1.83    1.58
   6   4   2    0.34    0.87
   6   4   2    0.51    1.51
  -6  -4   2   -0.22    1.23
  -6   4  -2   -0.16    0.89
   6  -4  -2    0.75    1.21
   6  -4  -2   -0.96    1.06
   8  -4   2    0.24    1.55
   8  -4   2    0.60    1.37
  -8  -4  -2    2.75    2.31
  -8   4   2    1.40    2.46
   8   4  -2   -3.01    1.79
  -8   4   2   -2.68    2.12
   8  -4   2   -0.01    1.44
   8   4  -2    3.97    1.81
   8  -4  -2   -1.91    1.63
   8   4   2    0.89    1.50
  -8  -4   2    0.84    2.22
  -8   4  -2    0.29    2.14
   8   4   2    0.45    1.45
   8  -4  -2    1.43    1.67
   8   4   2    1.56    1.63
  -8  -4   2   -2.12    2.55
  -1   5   2    9.33    1.82
   1   5  -2    8.37    1.70
  -1   5   2   11.76    2.14
   1  -5   2    7.43    0.90
   1   5  -2    8.16    0.85
   1  -5   2    8.30    0.91
   1  -5   2    9.82    0.77
   1   5  -2    5.47    1.42
   1  -5   2   10.72    1.56
  -1  -5  -2    8.06    0.76
  -1  -5  -2    7.59    0.79
   1  -5   2   10.89    1.60
  -1   5   2    5.83    1.51
  -1  -5  -2   10.81    2.11
   1   5  -2    6.03    1.38
  -1  -5  -2    8.78    1.08
  -1  -5  -2    9.40    1.98
  -1   5   2    9.05    0.79
  -1   5   2    8.65    0.76
  -1   5   2    7.91    0.70
   1   5  -2    8.32    0.68
   1   5  -2    8.07    0.71
   1   5  -2    8.20    0.82
  -1  -5  -2    9.55    1.34
  -1  -5  -2    9.57    1.86
  -1  -5  -2    7.91    0.77
  -1  -5   2    8.31    1.76
  -1   5  -2    7.70    1.04
  -1   5  -2    7.71    1.23
   1   5   2    7.68    0.64
  -1   5  -2    9.00    1.36
  -1   5  -2   11.15    1.39
   1   5   2   11.09    1.83
   1   5   2    7.78    1.69
  -1  -5   2    8.57    0.72
  -1  -5   2    7.81    0.77
  -1   5  -2    8.35    1.20
  -1   5  -2    7.36    0.80
  -1  -5   2    9.73    1.51
   1  -5  -2    8.76    0.76
   1   5   2    9.17    0.72
  -1  -5   2    8.00    0.65
   1  -5  -2    9.14    0.83
   1  -5  -2    9.76    1.88
  -1   5  -2    8.37    0.64
   1   5   2    8.10    0.69
  -1  -5   2    6.27    1.40
   1   5   2    8.74    0.68
   1   5   2    8.60    1.74
  -1   5  -2    7.03    0.80
   1  -5  -2    7.68    0.90
   1   5   2    7.59    0.73
   1  -5  -2    6.99    0.80
  -1   5  -2    7.94    0.64
   1  -5  -2    7.52    1.90
   1  -5  -2    7.77    1.78
  -3  -5  -2    2.15    2.95
  -3  -5  -2    3.72    0.76
   3   5  -2    2.82    0.50
   3  -5   2    3.18    0.69
   3   5  -2    1.36    3.93
  -3   5   2    5.07    3.28
  -3  -5  -2    7.37    3.18
   3   5  -2    3.30    3.19
   3  -5   2    4.18    0.86
   3  -5   2    1.50    2.66
  -3  -5  -2    2.61    1.28
  -3   5   2    4.04    0.79
   3   5  -2    4.16    1.01
  -3  -5  -2    6.56    3.13
  -3   5   2    4.35    3.42
  -3  -5  -2    2.84    1.40
  -3   5   2    4.13    0.82
   3  -5   2    6.44    1.29
  -3   5   2    2.33    0.67
  -3   5   2    0.06    3.08
   3  -5   2    5.41    3.40
  -3  -5  -2    1.05    3.02
  -3   5   2    3.53    0.74
   3   5  -2    3.15    3.01
  -3  -5  -2    3.02    0.83
   3  -5   2    3.75    0.86
   3   5  -2    3.23    0.79
   3  -5   2    3.12    0.77
   3   5  -2    4.42    1.01
  -3   5  -2    9.65    3.19
   3   5   2   -0.08    3.66
   3  -5  -2    1.85    2.70
  -3  -5   2    4.98    3.63
   3  -5  -2    5.76    3.48
   3   5   2    2.95    0.95
   3  -5  -2    3.74    0.73
   3   5   2    4.46    2.84
  -3   5  -2    2.92    0.83
  -3  -5   2   -0.48    3.35
  -3  -5   2    3.66    0.90
   3  -5  -2    3.77    0.83
  -3   5  -2    5.15    0.93
   3   5   2    4.08    0.82
   3   5   2    3.12    0.65
  -3  -5   2    3.34    0.89
  -3   5  -2    3.47    2.77
  -3  -5   2    4.43    0.86
  -3   5  -2    4.35    1.08
   3   5   2    3.43    0.74
   3  -5  -2    3.47    1.04
  -3   5  -2    3.64    0.98
   3  -5  -2   -2.47    2.39
  -3   5  -2    0.90    2.73
  -3  -5   2    3.13    0.60
  -3   5  -2   -1.14    2.77
  -3   5  -2    4.40    1.01
   3   5   2    2.46    0.70
  -3  -5   2    2.77    3.36
  -3   5  -2    3.00    0.74
   3   5   2    3.17    0.73
   5  -5   2    1.41    0.73
   5  -5   2   -0.51    0.87
  -5  -5  -2    0.28    1.64
  -5  -5  -2    0.69    0.81
   5   5  -2   -0.25    0.82
  -5  -5  -2   -0.59    1.61
  -5   5   2    1.55    1.63
   5   5  -2    0.69    0.85
  -5   5   2    1.36    1.11
   5   5  -2    0.10    0.91
  -5   5   2    1.23    0.99
  -5   5   2   -1.47    1.10
  -5   5   2    2.18    1.46
   5  -5   2    1.96    0.75
   5   5  -2    0.21    0.91
   5  -5   2    1.00    0.83
   5   5  -2    2.03    0.97
  -5  -5  -2    0.59    1.34
  -5   5  -2    2.19    1.70
   5  -5  -2    1.81    0.82
   5   5   2    1.56    0.75
   5  -5  -2    1.31    0.92
   5   5   2    2.56    1.18
  -5  -5   2    1.66    0.97
   5   5   2    0.69    0.81
  -5  -5   2    1.05    1.55
  -5   5  -2    2.05    1.45
  -5  -5   2    2.17    1.75
   5   5   2   -0.30    0.71
   5  -5  -2   -0.66    0.89
  -5   5  -2    0.36    0.72
   5   5   2   -0.12    0.84
  -5   5  -2    2.45    1.59
  -5   5  -2    1.09    0.79
   5  -5  -2   -0.57    0.89
  -5  -5   2    0.91    1.29
  -7  -5  -2   -0.48    1.75
  -7   5   2   -3.02    1.89
   7  -5   2    3.06    1.42
   7   5  -2    0.76    1.37
   7  -5   2    0.84    1.11
  -7  -5  -2   -2.01    2.34
   7  -5   2    1.36    1.38
  -7  -5  -2    0.70    2.57
  -7   5   2    3.75    1.80
   7   5  -2    1.68    1.55
   7  -5   2   -0.60    1.05
  -7  -5   2   -3.26    3.21
   7   5   2    1.50    1.35
   7  -5  -2    3.88    1.88
  -7  -5   2    1.33    1.62
  -7   5  -2    0.47    1.87
   7   5   2   -0.41    1.08
   7   5   2    0.22    1.28
  -7  -5   2   -1.53    2.01
   7   5   2    1.02    1.28
   7  -5  -2   -0.86    1.65
   7  -5  -2    0.03    1.56
   7  -5  -2   -0.16    1.36
   7  -5  -2   -0.23    1.31
   0  -6   2    3.25    0.35
   0   6  -2    2.52    0.32
   0   6  -2    3.80    0.80
   0   6   2    2.90    0.42
   0   6   2    3.43    0.38
   0   6  -2    3.73    0.79
   0  -6   2    2.95    0.67
   0   6   2    1.28    1.01
   0  -6  -2    3.70    0.62
   0   6   2    2.33    1.05
   0   6  -2    2.89    0.53
   0   6   2    3.69    0.40
   0   6   2    2.13    1.12
   0  -6  -2    0.82    1.06
   0  -6  -2    3.43    1.19
   0  -6  -2    3.17    0.70
   0   6   2    2.99    0.43
   0  -6   2    3.35    0.80
   0   6  -2    2.98    0.46
   0  -6  -2    3.12    0.51
   0  -6   2    2.77    0.31
   0   6  -2    2.61    0.41
   0   6  -2    3.17    0.75
   0  -6   2    3.30    0.71
   0   6  -2    2.76    0.58
   0  -6  -2    2.50    1.04
   2  -6   2    3.08    0.66
  -2  -6  -2    3.16    0.62
  -2  -6  -2    3.13    0.93
   2   6  -2    3.24    2.10
   2  -6   2    3.30    0.52
   2  -6   2    1.70    0.67
  -2   6   2    2.23    0.46
   2  -6   2    0.88    1.76
   2  -6   2    1.56    0.68
   2   6  -2    2.41    0.44
   2   6  -2    1.27    0.49
  -2   6   2    2.13    0.45
   2   6  -2    2.69    2.01
   2   6  -2    3.25    0.71
  -2   6   2    0.17    1.80
  -2   6   2    3.02    1.91
  -2  -6  -2    2.65    1.61
   2  -6   2    2.88    1.52
   2  -6   2    3.29    0.75
  -2  -6  -2    2.39    0.56
  -2  -6  -2    1.18    1.75
   2   6  -2    3.39    0.77
  -2   6   2    2.29    0.33
  -2   6   2    4.69    2.06
  -2  -6  -2    1.68    1.03
  -2   6   2    3.28    0.63
   2   6  -2    1.18    1.88
  -2  -6  -2    2.31    1.73
  -2  -6  -2    2.94    1.75
   2   6   2    2.47    1.84
   2  -6  -2    2.94    1.99
   2   6   2    1.60    0.43
  -2  -6   2    2.93    0.44
  -2   6  -2    2.91    0.67
  -2   6  -2    3.17    0.71
   2   6   2    2.81    0.49
  -2   6  -2    1.24    1.22
   2  -6  -2    2.30    0.54
  -2  -6   2    2.97    0.62
   2   6   2    3.69    0.78
   2   6   2    3.13    0.54
   2   6   2    0.36    1.56
  -2   6  -2    2.01    0.59
  -2  -6   2    3.21    0.65
  -2   6  -2    1.51    1.75
   2  -6  -2    3.76    0.84
  -2  -6   2    3.26    0.57
   2  -6  -2    2.35    1.64
  -2   6  -2    2.66    1.26
  -2  -6   2    1.32    1.91
  -2  -6   2    4.30    1.93
   2  -6  -2    3.03    0.51
  -2   6  -2    1.85    0.60
  -2   6  -2    3.09    0.54
  -2   6  -2    4.84    0.80
  -2   6  -2    1.71    1.76
   2  -6  -2    3.34    1.69
   2   6   2    3.53    0.55
  -2  -6   2    2.93    1.89
   2   6   2    2.18    0.46
   4   6  -2   -2.51    4.70
   4  -6   2    4.03    0.92
  -4  -6  -2    2.37    5.34
   4  -6   2    1.17    0.57
  -4  -6  -2   -6.27    5.35
   4   6  -2    2.23    0.92
   4   6  -2    2.27    0.88
   4  -6   2    3.49    1.27
  -4  -6  -2    3.27    1.74
  -4  -6  -2    4.00    1.32
   4   6  -2    1.23    0.78
   4  -6   2    3.63    1.01
  -4  -6  -2   12.84    5.63
  -4  -6  -2    3.61    0.85
  -4   6   2    3.29    1.14
  -4   6   2    7.62    6.21
   4   6  -2    8.31    4.91
   4   6  -2    4.86    7.41
  -4  -6  -2    0.15    1.56
  -4   6   2    2.20    0.82
  -4   6   2   -4.37    5.96
  -4   6   2    8.28    5.79
  -4   6   2    2.86    0.92
   4  -6   2    3.00    0.84
  -4   6   2    2.17    0.98
  -4  -6  -2    1.77    5.61
   4   6  -2    1.58    0.67
   4  -6   2    0.44    4.03
  -4  -6   2   12.40    6.94
   4   6   2    2.13    0.86
   4   6   2    2.66    0.76
  -4   6  -2    2.14    0.73
   4  -6  -2    1.26    0.73
  -4  -6   2    3.03    5.43
   4  -6  -2    2.08    7.04
   4   6   2    2.38    0.81
  -4   6  -2    1.46    1.21
  -4   6  -2   -3.24    4.72
   4   6   2    2.73    0.84
  -4   6  -2    2.88    1.26
   4   6   2   17.14    7.12
   4  -6  -2    6.29    1.32
   4  -6  -2   -0.12    4.02
   4  -6  -2    2.83    0.94
  -4  -6   2    2.38    0.84
   4  -6  -2    2.49    0.83
  -4  -6   2    1.26    1.17
   4   6   2   -1.54    5.18
  -4  -6   2    3.21    1.05
  -4  -6   2    2.63    0.74
  -4   6  -2    2.64    1.19
   4  -6  -2    1.10    4.18
  -4  -6   2    2.89    1.09
   4   6   2    2.26    0.72
  -4  -6   2    8.81    7.03
  -4   6  -2    2.37    0.88
  -4   6  -2   -0.09    4.79
   6  -6   2    1.33    0.95
   6   6  -2    2.38    1.29
  -6   6   2   -1.02    2.60
   6   6  -2    2.45    1.22
   6  -6   2    2.01    1.01
   6  -6   2    2.12    1.21
  -6   6   2    1.54    1.23
   6   6  -2    0.61    1.07
  -6  -6  -2    2.15    2.49
   6  -6   2    3.43    1.20
  -6  -6  -2    1.89    2.01
  -6   6   2    1.39    1.44
   6   6  -2    2.56    1.40
  -6   6   2    3.13    1.70
  -6  -6  -2    1.25    1.79
   6  -6  -2    2.68    1.14
   6  -6  -2    0.24    1.15
  -6  -6   2    2.69    2.44
  -6   6  -2    1.54    0.99
  -6   6  -2    3.89    2.36
   6  -6  -2    4.60    1.49
  -6  -6   2    3.09    1.36
   6   6   2    2.91    1.13
  -6   6  -2    2.82    1.62
  -6   6  -2    1.04    1.03
  -6  -6   2    0.97    2.15
   6   6   2    2.53    1.61
  -6  -6   2    2.09    1.91
   6   6   2    2.75    1.21
   6   6   2    1.97    0.92
   6  -6  -2    1.50    1.20
   6   6   2    2.00    1.28
   8  -6   2    3.12    1.57
  -8  -6  -2    4.31    2.44
   8   6  -2    2.67    2.05
   8  -6   2   -0.56    1.38
  -8   6   2   -5.59    2.25
   8  -6   2   -0.84    1.56
  -8   6   2    3.83    2.65
   8   6  -2    1.14    1.72
   8   6   2   -0.40    1.55
   8  -6  -2    1.69    1.81
   8  -6  -2    0.53    1.57
  -8   6  -2    2.33    2.06
   8   6   2   -1.37    1.40
  -8  -6   2    0.84    2.06
  -8  -6   2   -1.56    2.49
   8   6   2   -1.10    1.56
   1  -7   2    9.90    0.82
  -1   7   2    8.48    0.76
  -1   7   2   10.07    1.99
  -1  -7  -2    9.45    1.16
   1  -7   2    8.56    0.65
  -1  -7  -2    7.80    0.82
  -1  -7  -2   10.47    1.45
   1  -7   2    9.50    1.07
   1   7  -2    6.21    1.71
  -1  -7  -2    8.12    0.82
   1   7  -2    8.46    0.88
  -1   7   2    8.97    0.81
  -1  -7  -2    7.95    1.78
   1   7  -2    9.53    0.73
  -1  -7  -2    9.69    0.90
   1   7  -2    9.98    0.77
  -1   7   2    9.56    1.91
  -1   7   2   10.09    0.82
  -1  -7  -2    9.20    0.85
   1  -7   2    8.55    0.95
   1   7  -2   10.01    1.70
   1   7  -2    8.64    0.86
   1   7  -2    8.19    1.80
   1  -7   2   10.01    1.35
  -1   7   2    9.03    1.95
  -1  -7  -2    4.60    1.54
   1  -7   2    9.73    1.45
  -1  -7  -2   11.03    1.98
   1  -7  -2    7.85    1.90
  -1   7  -2    8.65    0.71
  -1   7  -2   12.19    1.53
   1   7   2    7.84    1.72
   1   7   2    7.61    0.73
  -1  -7   2   10.03    1.53
   1   7   2    9.75    0.83
   1  -7  -2   11.96    2.43
   1   7   2   10.22    2.05
  -1   7  -2    9.07    1.18
  -1   7  -2    9.53    1.14
   1  -7  -2   10.16    1.96
  -1   7  -2    7.97    1.32
   1  -7  -2    9.31    1.00
  -1   7  -2   10.45    0.94
   1  -7  -2    9.11    0.89
  -1  -7   2   10.29    0.87
  -1   7  -2    9.28    1.12
  -1   7  -2    8.62    0.70
  -1  -7   2   11.78    2.20
   1   7   2    9.52    0.75
  -1  -7   2    8.63    0.69
  -1  -7   2    7.65    0.74
   1   7   2    8.30    0.72
  -1   7  -2    7.73    0.86
   1  -7  -2    8.25    0.68
  -1  -7   2    9.70    1.55
   1  -7  -2    7.76    0.82
   1   7   2    7.54    1.68
   1   7   2    8.94    0.70
   3  -7   2    5.83    1.16
  -3  -7  -2    6.06    1.88
  -3   7   2    6.38    0.96
   3   7  -2    8.80    4.98
  -3  -7  -2    5.34    1.02
  -3   7   2    7.42    0.96
  -3   7   2    3.68    0.50
  -3  -7  -2    1.48    2.97
  -3  -7  -2    5.50    2.91
   3   7  -2    5.74    1.03
  -3   7   2    5.05    0.93
   3  -7   2   -0.57    2.70
  -3   7   2    7.29    3.47
   3  -7   2    3.04    2.98
  -3   7   2    6.75    3.45
   3   7  -2   -0.37    3.00
  -3  -7  -2    5.74    3.39
   3   7  -2    7.58    3.32
   3  -7   2    6.19    1.07
  -3  -7  -2    2.77    1.36
  -3   7   2    4.37    0.80
  -3  -7  -2    6.01    3.16
   3  -7   2    5.74    1.07
  -3  -7  -2    4.96    0.88
   3   7  -2    4.79    0.99
   3   7  -2    4.15    0.53
   3  -7   2    5.48    0.92
  -3   7   2   -0.46    2.97
   3   7  -2    6.00    0.96
   3  -7   2    5.88    1.25
   3  -7  -2    4.05    2.82
   3   7   2    3.79    0.78
  -3  -7   2    4.89    3.61
  -3   7  -2    2.65    2.48
   3   7   2    5.73    1.25
  -3   7  -2    4.53    1.13
  -3   7  -2    4.95    1.20
   3   7   2    4.50    3.38
  -3   7  -2    4.26    1.60
   3   7   2    5.98    0.99
  -3   7  -2    3.21    3.01
   3  -7  -2    4.35    0.81
  -3  -7   2    8.08    1.21
  -3  -7   2   12.30    4.52
  -3  -7   2   -2.17    3.70
  -3  -7   2    5.56    0.75
   3  -7  -2    5.91    1.00
   3  -7  -2    5.43    1.13
   3   7   2    3.84    3.06
  -3  -7   2    5.45    1.10
  -3   7  -2    6.36    3.09
   3   7   2    5.76    0.85
   3   7   2    6.01    0.88
   3  -7  -2    2.25    2.63
  -3   7  -2    4.82    0.93
   3  -7  -2    6.80    3.88
  -3   7  -2    5.62    1.05
   3   7   2    5.56    0.87
  -3  -7   2    5.43    1.21
  -3   7  -2    4.28    2.49
   5   7  -2    2.52    1.02
  -5  -7  -2    1.62    1.90
  -5   7   2    0.78    1.88
   5  -7   2    4.18    1.24
   5  -7   2    2.34    0.84
   5   7  -2    3.77    1.03
   5   7  -2    1.89    0.96
   5   7  -2    2.02    1.00
  -5   7   2    4.01    1.12
  -5  -7  -2    4.02    1.59
   5   7  -2    2.34    1.04
  -5   7   2    1.39    1.12
  -5   7   2    1.70    1.41
   5  -7   2    2.85    1.01
  -5  -7  -2    2.10    2.01
   5  -7   2    4.32    1.10
  -5   7   2    0.76    1.14
   5   7   2    2.20    1.26
  -5   7  -2    2.84    1.70
  -5   7  -2    3.63    1.67
   5   7   2    2.21    0.97
  -5   7  -2    1.98    0.84
   5   7   2    2.36    0.95
   5  -7  -2    3.33    0.93
  -5  -7   2    1.85    1.60
   5  -7  -2    2.21    1.06
  -5  -7   2    4.45    1.34
  -5   7  -2    2.40    0.87
   5  -7  -2    6.83    1.41
  -5  -7   2    0.44    1.72
   5  -7  -2    2.36    1.03
  -5  -7   2    2.94    1.60
   5   7   2    2.20    0.96
   5   7   2    3.11    1.22
  -7  -7  -2   -0.61    1.83
  -7  -7  -2   -1.62    2.20
   7   7  -2    0.11    1.37
  -7   7   2    1.74    1.89
   7  -7   2    0.29    1.36
   7  -7   2    0.62    1.07
   7  -7   2    1.52    1.20
  -7  -7  -2    3.64    2.62
   7  -7   2    2.84    1.44
   7   7  -2    0.12    1.64
  -7   7   2    3.92    2.16
  -7  -7   2    0.48    3.53
   7   7   2    0.28    1.34
   7   7   2    2.65    1.38
   7  -7  -2    2.37    1.60
  -7  -7   2   -0.05    3.14
   7   7   2   -0.60    1.29
  -7  -7   2    0.78    1.72
  -7  -7   2    1.19    2.12
   7  -7  -2    0.03    1.23
   7   7   2    1.09    1.12
  -7   7  -2   -0.26    1.76
   7  -7  -2    1.47    1.92
   7  -7  -2   -2.04    1.44
   7  -7  -2    2.73    1.81
   0   8  -2   -0.33    0.52
   0   8  -2    0.24    0.22
   0   8  -2   -0.10    0.24
   0  -8   2    0.16    0.14
   0   8   2    0.09    0.16
   0  -8   2   -0.51    0.59
   0   8   2    0.16    0.20
   0   8   2    0.14    1.01
   0  -8   2    0.35    0.45
   0  -8  -2    0.62    1.04
   0   8  -2   -0.05    0.15
   0   8   2   -0.04    0.17
   0   8  -2    0.16    0.44
   0   8   2    0.19    0.17
   0   8  -2   -0.02    0.24
   0  -8  -2    0.53    0.47
   0  -8   2    0.11    0.14
   0   8   2   -0.76    0.99
   0   8  -2    0.40    0.40
   0  -8  -2    0.60    0.99
   0   8  -2    0.07    0.54
   0  -8   2   -0.02    0.42
   0  -8  -2    0.34    0.24
   0  -8  -2    0.34    0.97
   0  -8  -2    0.33    0.32
   0   8   2   -0.56    1.17
  -2   8   2   -3.46    1.67
   2   8  -2    0.63    0.28
   2  -8   2   -0.05    0.29
  -2  -8  -2    1.74    1.83
   2   8  -2    0.57    0.42
   2  -8   2    0.32    0.47
  -2  -8  -2    0.20    0.39
  -2   8   2    0.36    0.36
  -2  -8  -2   -1.24    1.55
  -2  -8  -2    0.97    0.82
  -2   8   2   -0.02    2.04
  -2   8   2   -0.98    1.69
   2   8  -2   -0.04    0.37
  -2  -8  -2    1.10    1.05
  -2  -8  -2   -0.49    1.61
  -2   8   2    0.03    0.30
   2   8  -2    2.41    2.30
  -2  -8  -2   -0.24    0.30
   2  -8   2    0.41    0.54
   2  -8   2    0.55    0.50
  -2  -8  -2    3.53    1.79
   2   8  -2    3.84    2.18
   2  -8   2   -1.73    1.75
  -2   8   2    0.45    0.24
   2   8  -2    0.51    2.20
   2  -8   2    0.96    1.50
   2  -8   2   -0.93    0.41
   2   8  -2   -0.90    0.49
  -2   8   2    0.18    0.30
   2  -8  -2    0.24    1.95
  -2   8  -2   -1.52    1.06
  -2  -8   2    0.48    0.24
  -2  -8   2   -0.37    0.40
  -2   8  -2    0.20    0.42
  -2   8  -2   -0.10    1.81
  -2  -8   2   -0.65    2.53
   2  -8  -2   -0.59    0.51
   2   8   2    0.07    0.26
  -2   8  -2   -1.47    1.06
  -2  -8   2   -0.89    1.83
   2   8   2    0.58    1.67
  -2  -8   2    0.59    1.77
   2   8   2    0.03    0.27
   2  -8  -2   -0.19    0.39
   2   8   2    0.07    1.68
   2  -8  -2   -0.47    1.60
  -2  -8   2    0.49    0.42
  -2  -8   2   -0.34    0.33
  -2   8  -2    0.15    1.86
  -2   8  -2    0.24    0.44
  -2   8  -2    0.29    0.39
   2   8   2    0.00    0.25
  -2   8  -2    0.29    0.39
  -2   8  -2    0.17    0.31
   2  -8  -2   -1.30    1.60
   2   8   2    0.29    0.31
   2   8   2    0.07    0.53
   4   8  -2   -0.92    0.69
   4  -8   2    0.52    0.62
  -4  -8  -2   -0.93    1.00
  -4   8   2    1.92    6.21
  -4  -8  -2   -1.14    5.79
   4  -8   2    3.81    4.42
   4   8  -2    0.18    0.74
  -4   8   2   10.53    6.58
   4  -8   2    0.79    0.50
  -4  -8  -2   -1.94    5.63
  -4  -8  -2   -0.03    1.59
  -4   8   2   -1.82    5.82
  -4   8   2   -0.21    0.91
  -4   8   2    0.07    0.67
  -4  -8  -2    1.12    1.57
   4  -8   2   -0.45    0.55
  -4  -8  -2    1.97    5.73
  -4  -8  -2   -2.18    5.85
   4   8  -2   -0.32    0.56
   4   8  -2    0.16    0.59
  -4   8   2   -0.83    0.91
  -4   8   2   -1.05    0.53
   4  -8   2    1.55    0.86
   4   8  -2    0.19    0.69
   4  -8   2    0.28    1.04
  -4   8   2    0.26    0.76
  -4  -8  -2    0.07    0.71
  -4   8   2    0.73    0.67
   4  -8  -2   -0.06    4.11
   4   8   2    1.30    0.85
   4   8   2    0.51    0.72
  -4  -8   2    1.60    0.95
   4  -8  -2   -1.85    4.52
   4  -8  -2    0.17    0.78
  -4   8  -2    0.21    1.24
   4   8   2   -2.69    5.62
   4  -8  -2    2.86    6.98
   4   8   2   -0.19    0.68
  -4   8  -2   -0.60    1.01
  -4   8  -2    6.91    4.83
  -4  -8   2   -0.07    0.77
   4  -8  -2   -0.05    0.72
  -4   8  -2   -0.12    1.06
  -4   8  -2   -0.35    0.50
   4  -8  -2    0.06    0.84
   4   8   2    1.12    0.56
  -4   8  -2   -0.29    4.83
   4  -8  -2   -0.24    0.65
  -4  -8   2    1.11    1.04
   4   8   2    4.27    6.87
  -4  -8   2   -0.33    0.72
   4   8   2    0.91    0.62
  -4   8  -2    0.55    0.68
   6  -8   2    0.37    1.20
   6   8  -2    0.74    1.29
   6  -8   2   -0.17    1.01
   6   8  -2   -0.43    1.20
  -6  -8  -2   -0.96    2.60
  -6  -8  -2   -1.51    1.89
  -6  -8  -2    0.79    1.68
  -6   8   2   -0.29    1.41
  -6   8   2    0.61    1.33
  -6   8   2   -1.47    1.21
   6   8  -2    1.44    1.15
   6  -8   2   -1.42    0.82
   6   8  -2    1.16    1.27
   6  -8   2   -0.19    0.87
   6  -8  -2   -1.11    0.99
  -6  -8   2    3.63    2.36
   6  -8  -2    1.56    1.30
   6  -8  -2   -1.99    1.09
  -6   8  -2   -0.45    0.85
   6   8   2    0.07    1.03
  -6  -8   2    2.23    2.46
  -6   8  -2   -0.24    1.69
   6   8   2    2.11    1.21
  -6  -8   2   -1.45    1.68
  -6   8  -2    0.39    0.87
  -6  -8   2    2.43    1.40
   6   8   2    0.81    1.63
   6  -8  -2   -0.56    1.05
   6   8   2    0.57    0.93
   6   8   2    0.63    1.15
  -8   8   2   -1.83    2.37
   8   8  -2    0.56    2.30
   8  -8   2    0.10    1.67
   8  -8   2   -2.82    1.32
   8   8  -2   -0.61    1.64
   8  -8   2   -0.14    1.49
   8   8  -2    1.43    1.64
  -8   8   2    0.12    2.72
  -8  -8  -2   -0.28    2.30
  -8   8  -2   -1.17    2.06
   8   8   2    0.40    1.41
  -8  -8   2    1.38    2.61
   8   8   2    0.02    2.74
   8  -8  -2   -0.75    1.49
   8   8   2    0.06    1.58
  -8  -8   2    1.85    2.09
   8  -8  -2   -2.29    1.71
   8   8   2   -0.23    1.70
  -1  -9  -2  137.68    8.65
   1   9  -2  144.68    8.22
   1  -9   2  130.22    8.24
  -1   9   2  139.26    8.09
  -1  -9  -2  145.33    9.43
   1   9  -2  114.18    9.32
  -1  -9  -2  142.29    8.63
  -1  -9  -2  134.98    8.10
   1   9  -2  140.86    8.03
   1   9  -2  139.66    8.19
  -1  -9  -2  147.81    9.68
  -1   9   2  146.21    8.14
   1  -9   2  130.95    7.88
  -1  -9  -2  144.10    8.22
  -1  -9  -2  139.52    8.00
   1  -9   2  130.49    8.69
   1  -9   2  142.00    8.12
  -1   9   2  125.26    9.16
   1  -9   2  142.01    8.12
  -1   9   2  137.87    9.51
   1   9  -2  138.63    8.86
   1  -9   2  138.29    8.28
  -1  -9  -2  132.71    9.51
   1   9  -2  139.29    8.02
   1  -9   2  137.22    8.17
  -1   9   2  131.31    9.51
  -1   9   2  144.61    8.13
   1   9  -2  137.45    7.94
   1   9   2  135.12    9.18
   1   9   2  140.93    8.04
  -1  -9   2  147.46    8.36
  -1  -9   2  142.06    8.89
  -1  -9   2  134.62    9.78
  -1   9  -2  118.62    8.41
  -1  -9   2  138.27    8.08
  -1  -9   2  145.95    8.78
  -1   9  -2  136.31    7.99
  -1   9  -2  146.38    8.45
   1  -9  -2  146.26    8.20
   1   9   2  138.23    9.74
   1   9   2  141.83    8.15
  -1   9  -2  145.98    8.30
   1   9   2  142.86    8.05
  -1  -9   2  143.90    7.96
  -1   9  -2  139.24    8.19
  -1   9  -2  140.81    8.13
  -1   9  -2  143.99    8.02
   1   9   2  143.26    8.02
  -1  -9   2  134.86    8.07
   1  -9  -2  143.95    7.99
   1   9   2  148.07    9.52
  -1   9  -2  122.38    8.54
   1  -9  -2  140.13    8.38
   1  -9  -2  142.03    9.58
  -1  -9   2  142.64    8.14
   1  -9  -2  142.81    9.73
   1  -9  -2  145.07    9.37
  -1   9  -2  144.51    8.21
  -3  -9  -2   66.75    4.84
   3  -9   2   79.72    5.33
  -3   9   2   82.59    5.02
   3  -9   2   75.71    5.13
  -3   9   2   82.82    5.25
   3   9  -2   71.61    9.46
  -3  -9  -2   79.28    5.26
  -3  -9  -2   74.47    7.59
  -3   9   2   73.50    4.63
   3   9  -2   72.95    5.17
   3   9  -2   74.81    4.56
   3   9  -2   76.23    8.50
   3   9  -2   75.22    5.07
  -3   9   2   85.07    8.30
  -3  -9  -2   73.94    6.43
  -3  -9  -2   88.49    7.82
  -3  -9  -2   85.38    7.67
   3  -9   2   79.51    5.16
  -3  -9  -2   71.55    5.95
   3  -9   2   73.81    7.69
  -3   9   2   73.25    8.15
   3   9  -2   75.22    7.91
   3   9  -2   78.49    4.95
  -3   9   2   77.22    7.81
   3  -9   2   87.87    8.10
  -3   9   2   77.29    5.05
   3  -9   2   68.61    5.17
   3  -9   2   70.08    4.95
  -3  -9  -2   82.10    8.03
  -3   9   2   84.91    5.04
  -3   9  -2   83.75    5.30
   3   9   2   74.20    5.31
   3   9   2   80.24    4.97
  -3   9  -2   77.65    5.29
   3   9   2   81.93    4.97
  -3   9  -2   78.58    5.28
   3  -9  -2   78.26    5.34
  -3   9  -2   89.52    7.77
  -3  -9   2   79.92    4.81
  -3   9  -2   80.56    5.01
   3  -9  -2   80.08    7.65
  -3   9  -2   83.36    7.92
   3   9   2   80.67    4.86
   3  -9  -2   85.02    4.98
  -3  -9   2   82.19    9.18
  -3  -9   2   80.37    5.31
  -3  -9   2   64.89    8.46
  -3  -9   2   72.16    9.34
   3   9   2   83.15    8.21
   3  -9  -2   76.77    5.10
   3   9   2   78.47    4.98
   3  -9  -2   72.62    8.18
   3   9   2   87.63    8.93
  -3  -9   2   83.38    5.26
  -3  -9   2   87.98    5.69
  -3   9  -2   77.25    5.13
   3  -9  -2   78.89    7.34
   3   9   2   86.15    5.14
  -5  -9  -2   36.53    4.71
   5  -9   2   32.33    2.98
  -5   9   2   33.74    3.88
   5  -9   2   33.35    2.81
  -5   9   2   33.59    3.18
   5  -9   2   33.77    2.78
   5  -9   2   34.76    2.78
   5   9  -2   30.32    2.56
  -5   9   2   32.42    2.87
   5   9  -2   28.99    2.85
   5   9  -2   31.39    2.59
  -5  -9  -2   40.34    3.97
   5   9  -2   32.90    2.97
  -5   9   2   34.46    3.66
  -5  -9  -2   33.62    3.41
   5   9  -2   32.93    2.82
  -5   9   2   37.28    3.24
   5   9   2   31.04    2.78
  -5  -9   2   31.10    3.55
   5   9   2   27.53    2.87
  -5   9  -2   31.82    2.74
   5   9   2   29.60    2.72
   5  -9  -2   27.71    3.08
   5  -9  -2   29.92    2.69
  -5   9  -2   29.32    2.72
  -5  -9   2   29.74    3.00
   5   9   2   34.30    3.16
   5  -9  -2   28.49    3.12
  -5  -9   2   34.94    4.14
  -5   9  -2   35.49    3.72
   5   9   2   30.53    2.89
  -5  -9   2   35.98    3.74
   5  -9  -2   31.20    2.79
  -5   9  -2   32.71    3.65
   7  -9   2   13.57    2.12
   7  -9   2   13.64    2.23
   7   9  -2    9.62    1.86
   7  -9   2   10.05    2.16
   7  -9   2   12.98    2.15
  -7   9   2    9.95    2.73
  -7  -9  -2   14.24    2.81
   7   9  -2   11.22    2.11
  -7  -9  -2    7.21    2.93
  -7  -9  -2   14.41    2.97
  -7   9   2   13.35    2.48
  -7  -9   2    2.41    3.64
   7   9   2   15.08    2.34
  -7  -9   2   12.33    2.95
   7   9   2   12.12    2.08
   7  -9  -2    9.74    1.95
   7  -9  -2   10.38    1.95
  -7  -9   2   12.79    2.39
  -7  -9   2   -0.35    3.37
   7  -9  -2   11.89    2.30
  -7   9  -2   10.71    2.65
   7   9   2   14.58    1.96
  -7   9  -2    6.49    2.39
   7  -9  -2   12.18    2.21
   7   9   2   10.71    1.97
   0  10  -2  227.16   12.71
   0  10  -2  221.41   12.85
   0 -10   2  213.20   12.57
   0  10  -2  227.08   12.80
   0  10   2  228.39   14.33
   0  10   2  227.30   13.91
   0  10   2  222.30   12.74
   0  10   2  236.76   12.85
   0 -10  -2  236.84   13.12
   0  10  -2  222.96   13.06
   0 -10  -2  216.84   14.13
   0 -10  -2  217.49   13.18
   0  10   2  227.68   12.69
   0 -10  -2  227.88   12.88
   0  10  -2  215.52   12.88
   0  10   2  221.44   14.10
   0 -10   2  227.92   12.70
   0 -10  -2  223.94   14.30
   0  10  -2  216.79   12.79
   0 -10   2  226.62   12.69
   0 -10  -2  214.09   13.91
   0  10   2  224.42   12.71
   0  10  -2  225.86   12.83
   0 -10  -2  219.25   12.72
   0  10  -2  230.79   12.71
   0 -10   2  228.28   12.66
   0 -10   2  219.09   12.95
   2 -10   2  161.56    9.93
   2 -10   2  151.03   11.29
  -2  10   2  166.43   11.40
   2  10  -2  170.12    9.59
  -2 -10  -2  183.49   11.81
   2 -10   2  168.75    9.90
   2 -10   2  157.32    9.62
  -2  10   2  161.09   11.63
   2  10  -2  160.43    9.87
  -2 -10  -2  170.99    9.85
  -2  10   2  172.53    9.75
  -2  10   2  174.22    9.72
   2  10  -2  174.92    9.69
  -2  10   2  158.27   11.72
  -2 -10  -2  164.25   11.29
   2 -10   2  158.34    9.88
  -2  10   2  159.67    9.52
  -2 -10  -2  163.84   11.61
  -2 -10  -2  161.38   10.70
   2  10  -2  168.62    9.86
   2  10  -2  165.89   12.14
  -2 -10  -2  163.77   11.28
   2 -10   2  155.45    9.86
   2  10  -2  168.70   11.94
  -2 -10  -2  177.40   10.69
  -2  10   2  173.02    9.81
   2  10  -2  150.43   11.61
   2 -10   2  165.10   10.84
   2  10   2  168.51    9.63
  -2 -10   2  167.75    9.49
  -2  10  -2  167.18    9.99
   2  10   2  169.06    9.67
   2  10   2  161.57    9.86
   2  10   2  152.34    9.44
  -2  10  -2  159.18    9.52
  -2 -10   2  163.36   10.12
   2  10   2  168.77    9.64
  -2  10  -2  175.83   11.30
  -2 -10   2  171.12   11.50
   2  10   2  172.59   11.84
  -2  10  -2  166.90   10.47
  -2 -10   2  174.92   11.80
  -2 -10   2  174.03    9.98
  -2  10  -2  167.47   10.09
  -2 -10   2  155.22   12.56
  -2  10  -2  159.11   10.28
   2 -10  -2  174.53   11.40
   2 -10  -2  169.87   11.95
   2  10   2  165.15    9.59
   2 -10  -2  165.90    9.79
   2  10   2  169.62    9.76
   2 -10  -2  170.64    9.95
  -2  10  -2  171.02   11.00
  -2  10  -2  158.48    9.61
   2  10   2  166.14   12.00
   2 -10  -2  169.33   11.61
  -2  10  -2  169.79    9.85
  -2 -10   2  172.84    9.82
   4  10  -2   76.13    5.11
  -4 -10  -2   67.57    9.76
   4 -10   2   58.15    8.48
   4  10  -2   71.51    4.61
   4  10  -2   79.22    5.18
  -4 -10  -2   80.10    5.68
  -4  10   2   78.21    5.17
  -4  10   2   67.60    5.22
  -4 -10  -2   75.64    9.85
  -4 -10  -2   73.96    6.13
   4  10  -2   81.79    5.19
  -4  10   2   78.27    5.62
   4 -10   2   79.63    5.21
  -4 -10  -2   91.01   11.84
   4 -10   2   77.85    5.64
  -4 -10  -2   73.96    6.85
   4 -10   2   81.25    5.09
   4  10  -2   74.30    4.71
  -4  10   2   88.26   10.58
  -4  10   2   78.69    5.26
  -4  10   2   81.25   10.77
   4 -10   2   76.08    5.12
  -4 -10  -2   68.62    9.23
  -4  10   2   63.58    4.63
  -4  10   2   80.25   10.87
   4 -10   2   77.70    5.36
  -4  10   2   79.88    5.29
  -4 -10   2   76.83    5.32
  -4 -10   2   83.30    5.68
  -4  10  -2   77.06    5.19
   4  10   2   74.80    5.07
  -4  10  -2   78.02    5.47
  -4  10  -2   80.20    9.24
   4 -10  -2   75.67    5.50
   4  10   2   79.29   11.43
  -4 -10   2   82.98    6.16
   4  10   2   78.66    5.12
   4 -10  -2   75.51    9.91
   4  10   2   77.01    4.99
  -4  10  -2   77.71    9.72
   4  10   2   75.15    5.15
   4 -10  -2   72.73    5.11
   4  10   2   69.18    9.89
  -4  10  -2   74.15    5.54
   4  10   2   79.86    5.36
  -4  10  -2   77.78    5.10
  -4 -10   2   72.38    4.94
   4 -10  -2   60.10    8.57
   4 -10  -2   78.63    5.39
   4 -10  -2   57.92   10.38
  -6 -10  -2   30.26    3.74
   6  10  -2   29.19    3.05
  -6 -10  -2   33.96    4.32
   6 -10   2   35.43    3.17
   6 -10   2   28.29    2.87
  -6  10   2   29.79    2.93
  -6  10   2   24.51    3.75
   6 -10   2   30.65    2.95
  -6 -10  -2   23.64    4.22
  -6  10   2   31.45    3.44
   6  10  -2   34.51    3.11
   6  10  -2   28.88    2.81
   6  10  -2   32.80    3.17
   6 -10   2   33.77    2.92
  -6 -10   2   33.75    4.93
   6 -10  -2   34.58    2.97
   6  10   2   27.67    3.14
  -6 -10   2   28.21    3.26
  -6  10  -2   35.70    3.93
   6  10   2   29.56    2.91
   6 -10  -2   31.01    2.81
   6  10   2   28.10    2.76
  -6  10  -2   28.22    2.81
  -6 -10   2   26.16    3.70
  -6 -10   2   28.26    4.33
  -6  10  -2   28.57    2.74
   6 -10  -2   32.35    3.34
   6 -10  -2   27.95    3.10
   6  10   2   33.18    3.14
   6  10   2   25.05    2.96
   8 -10   2   12.41    2.20
   8  10  -2    8.20    2.22
   8  10  -2    7.90    1.95
  -8  10   2   13.33    3.08
   8 -10   2    7.89    2.11
   8 -10   2    6.62    1.91
   8  10  -2    7.45    2.78
  -8 -10  -2    8.22    2.77
  -8 -10  -2   10.66    4.65
  -8 -10   2    9.78    2.96
  -8  10  -2    9.04    2.45
   8  10   2   10.13    2.09
   8 -10  -2    8.90    2.39
  -8 -10   2    9.01    2.67
   8  10   2    7.74    1.77
   8 -10  -2    8.21    1.98
  -1  11   2   76.57    5.01
   1  11  -2   80.32    4.78
   1  11  -2   83.60    4.90
  -1  11   2   85.73    4.96
  -1  11   2   69.89    6.14
   1  11  -2   83.38    5.05
   1  11  -2   82.93    4.87
  -1  11   2   80.58    6.50
  -1 -11  -2   85.05    5.10
  -1 -11  -2   85.85    6.66
   1  11  -2   82.65    5.71
   1 -11   2   82.29    4.97
   1  11  -2   84.92    5.08
   1 -11   2   77.65    4.70
   1  11  -2   73.22    6.06
   1 -11   2   81.00    5.00
   1  11  -2   81.67    6.40
  -1  11   2   84.86    5.01
  -1  11   2   90.40    6.77
   1 -11   2   82.14    5.00
  -1 -11  -2   87.30    6.63
  -1 -11  -2   80.24    4.88
  -1 -11  -2   86.65    6.36
  -1 -11  -2   82.87    4.96
   1  11  -2   76.67    5.04
  -1  11   2   83.53    4.96
  -1 -11  -2   83.33    5.59
  -1 -11  -2   88.82    5.57
  -1 -11   2   77.03    6.62
   1  11   2   84.43    4.91
  -1 -11   2   80.62    5.01
  -1  11  -2   83.01    4.88
   1  11   2   86.90    6.76
   1 -11  -2   84.59    6.58
   1  11   2   84.24    4.89
   1  11   2   84.18    4.88
  -1  11  -2   85.94    5.18
  -1 -11   2   80.27    4.94
   1 -11  -2   82.06    5.24
   1  11   2   82.36    6.17
   1 -11  -2   85.67    6.35
  -1  11  -2   82.47    4.89
  -1 -11   2   81.48    4.78
   1  11   2   82.51    6.41
  -1 -11   2   80.73    5.58
   1 -11  -2   80.57    4.86
   1 -11  -2   87.78    5.07
  -1  11  -2   83.70    5.06
   1  11   2   80.19    5.00
  -1 -11   2   79.61    4.78
  -1  11  -2   86.38    5.29
  -1 -11   2   84.60    5.75
   1 -11  -2   90.06    6.84
  -1 -11   2   86.38    5.26
  -1 -11   2   86.76    5.00
   3  11  -2   47.68    3.63
  -3  11   2   55.20    6.91
  -3 -11  -2   55.83    6.81
  -3 -11  -2   42.88    4.76
  -3 -11  -2   45.31    6.44
   3 -11   2   51.66    3.79
   3  11  -2   59.56    6.99
  -3  11   2   44.99    6.23
  -3  11   2   50.07    6.58
   3  11  -2   56.73    8.55
   3  11  -2   55.25    7.27
   3  11  -2   50.33    3.56
  -3  11   2   51.50    3.51
  -3  11   2   51.93    3.53
  -3  11   2   50.84    3.43
   3  11  -2   48.50    3.04
   3  11  -2   52.82    3.41
  -3 -11  -2   54.19    7.01
   3 -11   2   49.64    3.63
   3 -11   2   60.09    6.85
  -3  11   2   45.04    3.16
   3 -11   2   45.91    3.73
  -3 -11  -2   54.73    3.79
   3 -11   2   50.92    3.69
  -3 -11  -2   49.38    4.75
   3 -11   2   50.10    3.45
  -3  11   2   51.49    3.67
  -3 -11  -2   56.61    6.53
  -3  11  -2   60.95    6.26
   3 -11  -2   49.84    6.42
   3 -11  -2   54.07    6.53
  -3 -11   2   55.73    3.76
   3 -11  -2   51.68    3.59
  -3 -11   2   65.25    8.85
  -3 -11   2   63.04    8.23
  -3  11  -2   48.14    3.74
  -3  11  -2   54.50    3.74
   3  11   2   43.80    6.42
   3 -11  -2   53.02    3.87
   3 -11  -2   58.70    7.58
   3  11   2   50.93    3.45
   3  11   2   52.71    3.33
  -3 -11   2   52.33    3.29
   3  11   2   48.34    3.23
  -3  11  -2   49.57    3.47
   3  11   2   49.34    3.80
  -3 -11   2   51.78    4.15
   3  11   2   52.15    3.44
  -3  11  -2   52.72    6.47
  -3  11  -2   50.34    3.64
   3 -11  -2   50.13    3.42
   3  11   2   55.66    3.58
   3  11   2   65.58    6.92
  -3 -11   2   52.04    7.45
   3  11   2   49.84    3.42
  -3 -11   2   53.50    3.80
  -5  11   2   24.78    2.57
  -5  11   2   21.35    2.73
  -5 -11  -2   26.93    3.23
   5 -11   2   28.33    2.43
  -5  11   2   29.81    3.33
   5  11  -2   25.76    2.60
  -5  11   2   27.30    3.48
  -5 -11  -2   30.68    4.64
  -5 -11  -2   21.66    3.61
  -5  11   2   21.79    2.83
   5  11  -2   28.59    2.63
   5  11  -2   23.08    2.71
   5 -11   2   21.82    2.37
   5 -11   2   25.55    2.38
   5  11  -2   28.85    2.53
   5  11  -2   23.64    2.28
   5 -11   2   22.44    2.66
   5 -11  -2   24.10    2.92
  -5  11  -2   26.84    2.43
  -5 -11   2   24.12    2.68
  -5 -11   2   27.01    4.15
  -5  11  -2   22.44    2.39
   5  11   2   24.61    2.58
   5  11   2   25.53    2.80
   5 -11  -2   27.63    2.45
   5 -11  -2   24.70    2.59
   5 -11  -2   24.61    2.79
   5  11   2   27.99    2.53
   5  11   2   24.40    2.50
  -5 -11   2   26.07    3.64
   5  11   2   25.98    2.50
  -5 -11   2   26.51    3.53
  -5  11  -2   30.68    3.27
  -5  11  -2   27.18    3.21
   7 -11   2   12.65    1.96
   7  11  -2   14.12    2.46
  -7  11   2   11.13    2.39
  -7 -11  -2    2.74    3.05
   7 -11   2    8.64    1.88
  -7 -11  -2   14.36    2.95
   7  11  -2   12.75    2.33
   7 -11   2   12.50    2.38
  -7  11   2   14.63    2.72
   7 -11   2   12.78    2.25
  -7 -11  -2   16.54    2.91
   7  11  -2   11.25    2.06
  -7  11  -2    9.86    1.88
   7  11   2   12.29    1.93
   7  11   2   12.08    2.00
  -7  11  -2   11.96    1.97
  -7  11  -2   10.82    2.60
  -7 -11   2   10.60    3.97
  -7 -11   2   10.90    4.05
  -7 -11   2   16.42    2.49
   7  11   2   10.90    2.02
  -7 -11   2   13.08    2.96
   7  11   2   13.18    1.98
   7 -11  -2   10.62    2.13
   7 -11  -2   12.96    2.34
   7 -11  -2   13.56    2.25
   7  11   2   14.66    2.38
   7 -11  -2   17.86    2.80
   0  12  -2   41.17    2.66
   0 -12  -2   35.98    3.91
   0  12  -2   40.62    2.57
   0  12   2   39.40    3.88
   0 -12  -2   40.10    2.97
   0 -12  -2   40.27    3.91
   0  12  -2   42.80    2.79
   0  12  -2   39.16    2.55
   0  12   2   36.59    3.66
   0  12   2   39.69    2.46
   0 -12  -2   42.20    2.83
   0  12  -2   40.14    2.48
   0 -12  -2   40.97    2.49
   0  12   2   34.91    2.61
   0  12   2   41.57    2.45
   0  12   2   36.21    4.08
   0 -12   2   36.01    2.35
   0 -12  -2   37.36    4.04
   0 -12   2   39.35    2.41
   0  12   2   37.89    2.47
   0  12   2   42.05    2.59
   0 -12  -2   38.52    2.62
  -2  12   2   30.05    1.97
  -2 -12  -2   25.44    4.06
   2 -12   2   29.86    2.28
  -2  12   2   32.71    2.21
  -2  12   2   28.42    4.17
  -2 -12  -2   31.86    2.27
   2 -12   2   28.24    2.28
   2  12  -2   27.78    2.24
   2  12  -2   29.99    2.06
   2 -12   2   26.75    1.99
   2 -12   2   28.60    3.58
  -2  12   2   33.80    4.56
  -2 -12  -2   35.36    4.17
  -2 -12  -2   31.82    3.14
  -2 -12  -2   31.62    4.31
  -2  12   2   31.30    2.12
  -2  12   2   26.89    2.10
   2 -12   2   27.40    2.30
   2  12  -2   35.22    4.93
   2  12  -2   28.64    4.29
   2 -12   2   27.50    3.22
   2  12  -2   31.59    4.28
   2 -12   2   29.21    2.32
  -2 -12  -2   35.61    4.79
  -2 -12  -2   30.21    3.21
   2  12  -2   28.64    2.22
  -2  12   2   35.05    4.48
   2  12  -2   28.57    1.97
  -2  12  -2   28.31    2.75
  -2  12  -2   29.62    2.33
   2  12   2   31.52    2.04
  -2 -12   2   24.16    3.84
   2 -12  -2   34.39    4.53
  -2 -12   2   30.97    2.52
  -2 -12   2   29.50    2.37
   2  12   2   20.96    3.75
  -2  12  -2   24.70    2.40
   2 -12  -2   30.38    2.35
  -2  12  -2   28.77    2.22
   2 -12  -2   34.24    4.84
   2  12   2   27.77    2.12
   2  12   2   27.41    1.85
   2 -12  -2   28.81    4.20
   2 -12  -2   30.49    2.19
  -2 -12   2   29.84    1.87
   2  12   2   29.52    1.96
  -2 -12   2   29.51    4.18
   2  12   2   29.88    2.06
  -2  12  -2   29.69    1.98
  -2  12  -2   30.09    2.04
   2  12   2   30.68    2.29
  -2 -12   2   30.80    2.19
  -2  12  -2   29.88    3.39
  -2 -12   2   32.44    5.22
  -2  12  -2   25.19    3.19
   2  12   2   30.10    2.04
  -2  12  -2   26.46    2.81
   4  12  -2   13.32    1.61
  -4  12   2   13.38    1.77
  -4  12   2    7.08    6.63
  -4 -12  -2    8.42    2.72
  -4  12   2   19.69    7.67
   4 -12   2   18.08    2.31
  -4 -12  -2    5.04    6.41
  -4  12   2   12.95    1.91
  -4 -12  -2   13.99    6.99
  -4 -12  -2   12.23    2.10
  -4  12   2   13.17    2.08
   4  12  -2   14.26    1.33
   4  12  -2   17.05    1.84
  -4 -12  -2   14.63    6.83
   4 -12   2   18.00    2.64
  -4  12   2   15.89    1.78
   4 -12   2   13.65    1.87
  -4 -12  -2   16.43    2.89
  -4  12   2   14.97    1.36
   4 -12   2    5.35    5.27
   4 -12   2   15.70    1.99
   4 -12   2   17.66    1.63
  -4  12   2   15.92    2.05
  -4 -12  -2   13.82    6.52
   4  12  -2   14.68    1.88
  -4  12   2   15.79    7.43
  -4 -12   2   12.22    2.38
  -4  12  -2   10.40    1.54
   4  12   2   13.65    1.93
   4 -12  -2   12.98    2.16
   4  12   2   14.82    1.65
   4 -12  -2    8.96    6.93
   4  12   2   15.96    1.66
   4 -12  -2   12.86    5.40
   4 -12  -2   15.13    1.75
  -4  12  -2   20.41    6.22
   4  12   2   14.39    7.15
  -4  12  -2   14.06    2.11
  -4  12  -2   18.34    6.12
  -4 -12   2   15.11    2.03
   4  12   2   13.66    1.56
  -4  12  -2   14.61    1.74
   4 -12  -2   10.19    4.94
   4  12   2   11.34    7.37
  -4 -12   2   13.68    2.02
  -4  12  -2   16.04    1.99
  -4 -12   2   18.45    2.87
   4  12   2   14.52    1.61
   4 -12  -2   16.33    2.01
  -6  12   2    6.32    2.02
   6  12  -2    3.89    1.36
   6 -12   2    6.90    1.43
  -6 -12  -2    4.19    2.60
   6  12  -2    2.49    1.66
  -6  12   2    6.21    1.58
   6 -12   2    5.37    1.38
   6  12  -2    3.58    1.47
  -6  12   2    3.83    1.80
  -6 -12  -2    9.18    2.87
   6 -12   2    4.67    1.42
  -6 -12  -2    4.76    2.14
   6  12  -2    5.66    1.67
   6 -12   2    7.15    1.74
  -6  12  -2    5.28    1.39
  -6  12  -2    3.46    2.02
  -6 -12   2    4.17    2.77
  -6 -12   2    7.16    1.87
   6  12   2    2.89    2.03
  -6 -12   2    5.90    2.25
   6  12   2    4.01    1.60
   6  12   2    5.87    1.40
   6  12   2    6.96    1.67
   6 -12  -2    3.70    1.54
   6 -12  -2    8.23    1.98
   6  12   2    3.09    1.23
  -6 -12   2    3.92    2.58
   6 -12  -2    5.34    1.85
  -6  12  -2    2.76    1.12
   6 -12  -2    6.06    1.54
   1  13  -2   88.37    5.15
   1 -13   2   86.59    5.27
   1  13  -2   85.06    5.34
   1 -13   2   86.55    5.26
  -1 -13  -2   84.60    5.18
  -1  13   2   86.34    5.28
   1  13  -2   88.92    5.38
   1  13  -2   91.99    6.06
  -1 -13  -2   81.73    5.19
  -1 -13  -2   88.29    5.97
  -1 -13  -2   86.40    6.72
  -1  13   2   83.35    6.95
  -1 -13  -2   94.19    7.14
   1  13  -2   88.59    5.33
  -1  13   2   85.32    6.88
   1  13  -2   86.16    5.05
  -1  13   2   92.72    5.25
   1  13  -2   84.44    5.18
   1  13  -2   87.16    6.00
  -1 -13  -2   91.83    5.86
  -1 -13  -2   91.98    5.41
  -1  13   2   90.34    5.35
  -1  13   2   81.38    5.18
   1  13  -2   86.40    6.19
  -1 -13  -2   86.59    7.01
  -1  13   2   85.29    6.65
   1  13   2   88.74    6.66
   1  13   2   94.21    7.05
  -1 -13   2   87.40    5.24
   1 -13  -2   83.97    6.92
  -1  13  -2   88.84    5.20
   1 -13  -2   87.53    5.34
  -1 -13   2   88.27    5.57
  -1  13  -2   87.81    5.34
   1  13   2   86.03    5.16
  -1  13  -2   84.67    5.16
  -1 -13   2   77.37    5.35
  -1  13  -2   91.60    5.51
   1 -13  -2   88.33    7.18
   1  13   2   84.99    7.04
  -1 -13   2   89.84    5.87
   1  13   2   92.31    5.16
  -1 -13   2   85.66    5.95
  -1 -13   2   86.06    5.08
  -1  13  -2   92.44    5.57
   1 -13  -2   82.85    6.61
   1  13   2   91.82    5.31
   1  13   2   88.08    5.25
   1  13   2   82.65    5.03
   1 -13  -2   87.48    5.17
  -1 -13   2   90.65    6.44
   1  13   2   90.42    5.20
   1 -13  -2   85.52    5.55
  -1 -13   2   86.73    5.03
  -1 -13   2   85.37    5.25
  -3 -13  -2   47.51    4.79
   3  13  -2   50.49    3.54
   3  13  -2   60.52    7.86
  -3  13   2   53.06    3.48
  -3 -13  -2   61.07    7.12
  -3 -13  -2   48.88    5.16
  -3  13   2   57.21    3.87
  -3 -13  -2   55.82    3.86
  -3  13   2   55.66    3.61
   3 -13   2   46.38    3.69
   3 -13   2   60.58    4.01
   3  13  -2   53.03    3.52
  -3  13   2   51.70    3.57
  -3  13   2   51.04    6.36
   3 -13   2   49.11    3.50
  -3 -13  -2   53.65    6.57
   3 -13   2   46.38    6.27
   3  13  -2   54.45    3.75
   3 -13   2   48.14    3.80
   3  13  -2   50.31    3.09
   3 -13   2   51.37    3.76
  -3  13   2   48.65    3.26
   3  13  -2   64.55    7.09
   3  13  -2   65.74   10.24
  -3  13   2   42.20    6.44
  -3  13   2   48.64    6.67
   3  13  -2   53.02    3.45
  -3 -13  -2   40.20    5.89
   3 -13  -2   54.13    3.51
   3 -13  -2   49.65    3.61
   3 -13  -2   44.68    6.42
  -3 -13   2   57.02    3.87
   3  13   2   51.88    3.48
  -3  13  -2   52.93    6.37
   3 -13  -2   44.02    6.07
   3  13   2   56.36    3.54
   3  13   2   52.91    3.48
   3  13   2   46.61    3.78
  -3 -13   2   50.58    3.31
   3 -13  -2   52.38    6.17
   3  13   2   47.50    3.26
  -3 -13   2   53.82    3.81
  -3  13  -2   51.83    3.73
  -3  13  -2   49.06    3.66
  -3  13  -2   50.66    3.89
   3 -13  -2   52.85    3.91
   3  13   2   37.80    6.10
  -3  13  -2   51.97    3.50
  -3 -13   2   53.32    8.87
  -3 -13   2   57.18    8.86
  -3  13  -2   54.61    6.10
   3  13   2   53.65    3.34
   3  13   2   46.69    7.10
  -3 -13   2   54.29    4.33
  -3 -13   2   45.68    7.25
  -5  13   2   22.53    2.72
   5 -13   2   25.80    2.50
   5 -13   2   25.03    2.72
  -5 -13  -2   26.08    3.45
  -5 -13  -2   28.74    3.94
  -5 -13  -2   26.24    4.17
   5 -13   2   25.25    2.34
  -5  13   2   19.68    2.90
   5 -13   2   28.11    2.44
   5  13  -2   21.29    2.27
   5  13  -2   20.55    2.50
  -5  13   2   24.48    2.49
   5  13  -2   26.81    2.50
   5  13  -2   19.77    2.42
  -5  13   2   20.82    3.07
   5  13   2   22.31    2.73
   5  13   2   21.02    2.31
  -5 -13   2   27.50    4.16
   5 -13  -2   22.60    2.44
   5  13   2   21.30    2.29
  -5  13  -2   26.44    3.44
   5 -13  -2   21.17    2.63
  -5 -13   2   26.59    3.44
  -5 -13   2   31.57    3.92
  -5  13  -2   23.97    2.33
   5 -13  -2   25.30    3.35
  -5  13  -2   23.18    2.36
   5  13   2   24.21    2.54
   5  13   2   22.13    2.52
  -5 -13   2   22.69    2.64
   5  13   2   27.17    2.49
   5 -13  -2   18.80    2.63
   7  13  -2    6.40    1.87
   7  13  -2    9.12    2.59
   7 -13   2   12.13    2.40
  -7  13   2    8.39    2.53
  -7 -13  -2   12.79    2.73
  -7  13   2   10.45    2.66
   7 -13   2   12.06    1.95
   7 -13   2    8.29    1.69
   7  13  -2   10.10    2.12
  -7 -13  -2   10.80    3.64
   7  13   2    8.05    1.99
   7 -13  -2    8.91    1.84
  -7 -13   2    9.03    2.77
  -7  13  -2    8.67    1.79
   7 -13  -2    4.15    1.56
  -7 -13   2    9.34    2.30
   7 -13  -2   13.22    2.52
  -7  13  -2    7.23    2.27
   7 -13  -2    7.58    2.19
   7  13   2    9.50    2.01
  -7 -13   2    7.73    3.76
   7  13   2    8.49    1.67
  -7  13  -2    5.92    1.70
  -7 -13   2    5.35    3.75
   7  13   2    8.46    1.87
   0  14  -2    1.98    0.56
   0 -14  -2    0.97    1.51
   0 -14  -2    2.51    0.93
   0 -14  -2    1.32    0.58
   0  14   2    2.09    0.37
   0 -14  -2    1.53    1.57
   0  14  -2    2.05    0.48
   0  14  -2    2.20    0.42
   0 -14   2    1.99    0.33
   0 -14  -2    2.82    0.60
   0  14   2    1.84    0.41
   0  14   2    1.36    1.52
   0 -14  -2    1.38    0.40
   0 -14  -2    0.46    1.56
   0  14   2    1.70    0.40
   0  14  -2    2.94    0.62
   0 -14   2    1.92    0.51
   0  14   2    1.62    0.39
   0  14  -2    1.95    0.45
   0  14   2   -1.24    1.63
   0  14   2   -0.69    1.50
   0  14   2    2.46    0.42
   2 -14   2    1.90    1.44
  -2 -14  -2    1.78    0.61
   2  14  -2    0.72    0.54
  -2 -14  -2    4.00    2.70
   2  14  -2    2.00    2.54
  -2  14   2    0.79    0.47
  -2 -14  -2    0.62    2.10
   2  14  -2    1.22    0.34
   2  14  -2    1.04    0.52
   2  14  -2    0.84    0.36
   2  14  -2    1.79    2.41
   2 -14   2    0.92    0.68
   2 -14   2    1.58    0.66
  -2  14   2    1.28    0.47
   2 -14   2    2.88    0.79
  -2  14   2    1.92    2.49
  -2 -14  -2    1.26    0.52
  -2 -14  -2    1.49    1.13
   2 -14   2    1.25    0.46
  -2  14   2    3.55    2.70
   2  14  -2    2.41    0.74
   2  14  -2    1.20    0.39
  -2  14   2    0.72    0.46
   2 -14   2    1.91    1.33
  -2  14   2    1.65    2.49
  -2  14   2    2.13    0.41
  -2 -14  -2    1.66    1.46
  -2 -14  -2    1.76    2.44
   2  14  -2   -2.56    2.79
  -2 -14  -2    3.10    2.18
   2  14   2    1.04    0.41
   2  14   2    1.25    0.76
  -2 -14   2    2.35    3.03
   2 -14  -2    1.52    0.69
   2  14   2    1.11    0.39
   2  14   2    1.67    0.41
   2  14   2    1.15    0.47
  -2  14  -2    1.05    1.14
  -2 -14   2    1.64    0.66
  -2  14  -2    1.52    1.22
   2 -14  -2    1.75    2.13
   2 -14  -2    0.79    0.70
  -2  14  -2    0.88    0.50
   2  14   2    1.25    0.39
   2  14   2    1.12    0.32
  -2 -14   2    3.75    2.62
   2  14   2   -0.89    2.38
   2 -14  -2    1.55    0.47
   2 -14  -2    2.56    2.56
  -2  14  -2    1.16    0.64
  -2  14  -2    0.33    0.37
  -2  14  -2   -0.45    1.03
  -2  14  -2    2.29    1.12
  -2 -14   2    1.52    0.68
   2 -14  -2    1.60    2.12
  -2  14  -2    1.80    0.60
  -2 -14   2   -3.41    2.47
  -2 -14   2    1.48    0.58
  -2  14  -2    1.16    0.47
  -2 -14   2    0.74    0.29
   4 -14   2    1.19    0.69
   4  14  -2    0.50    0.68
  -4 -14  -2    1.48    1.99
   4 -14   2    1.28    1.05
  -4  14   2   -0.53    0.54
  -4 -14  -2    1.99    7.11
  -4 -14  -2    4.89    6.94
  -4 -14  -2    3.26    2.24
  -4  14   2    3.47    1.10
  -4 -14  -2    4.04    6.93
  -4  14   2    0.57    1.10
  -4 -14  -2    0.36    1.05
   4  14  -2    0.80    0.76
  -4  14   2    1.22    0.84
  -4  14   2    4.08    6.81
  -4  14   2   -0.77    0.75
  -4  14   2    0.58    1.23
   4 -14   2    1.75    0.99
  -4  14   2    1.14    6.73
   4 -14   2    1.76    0.88
  -4  14   2   -0.39    6.95
  -4 -14  -2    9.50    7.35
   4  14  -2    0.65    0.83
   4  14  -2    1.16    0.71
   4  14  -2    0.33    1.15
  -4 -14   2    0.61    0.86
   4 -14  -2    3.85    8.42
   4  14   2    0.86    0.68
  -4 -14   2   -0.18    1.27
   4  14   2    0.66    0.81
   4 -14  -2   -0.67    1.01
   4  14   2    1.19    0.74
  -4  14  -2    9.99    6.42
  -4 -14   2    0.50    1.45
  -4 -14   2    0.13    1.05
   4 -14  -2    1.03    5.88
  -4  14  -2    1.56    0.80
   4  14   2   -2.91    6.99
   4 -14  -2    0.12    0.68
   4 -14  -2    1.51    0.96
   4  14   2    3.21    7.52
  -4  14  -2   -6.02    6.69
   4  14   2    0.38    0.75
  -4  14  -2    1.07    1.11
  -4  14  -2   -0.03    0.58
   4 -14  -2   -6.76    5.45
   4  14   2    0.94    0.78
   4  14   2    1.28    0.70
  -6 -14  -2   -2.61    2.63
  -6  14   2    1.39    1.44
  -6 -14  -2    1.59    2.02
  -6 -14  -2   -6.40    2.11
   6  14  -2   -0.11    1.28
   6  14  -2    0.92    1.71
   6 -14   2   -1.40    1.34
   6 -14   2   -0.43    0.94
  -6  14   2    1.29    1.80
  -6  14   2   -0.24    1.65
   6  14  -2    0.55    1.37
   6  14  -2   -0.40    1.28
   6 -14   2   -0.16    1.18
   6  14  -2    1.09    1.78
   6 -14   2   -0.52    1.01
  -6 -14   2    1.81    1.40
  -6 -14   2   -0.73    1.88
  -6 -14   2    1.39    2.46
   6 -14  -2   -0.99    1.43
   6  14   2   -0.14    1.36
   6 -14  -2    1.17    1.36
   6  14   2    0.28    1.36
  -6  14  -2    0.29    1.00
  -6 -14   2   -2.94    2.48
   6  14   2   -0.18    1.23
   6 -14  -2    0.58    1.45
   6  14   2   -0.74    1.36
  -6  14  -2   -1.09    0.91
  -6  14  -2    1.83    1.63
   6  14   2   -1.12    1.08
   6 -14  -2    0.64    1.39
  -1 -15  -2   13.34    2.93
  -1 -15  -2   11.97    1.68
   1  15  -2   11.18    0.95
  -1 -15  -2   11.05    2.66
  -1 -15  -2   11.49    2.74
   1  15  -2    9.72    1.10
  -1  15   2   12.95    1.02
   1 -15   2   11.04    1.03
  -1 -15  -2   10.84    1.02
   1  15  -2    8.84    1.13
  -1 -15  -2   10.68    0.96
   1 -15   2   10.06    1.06
  -1  15   2   15.52    3.22
  -1  15   2   11.03    1.02
  -1 -15  -2   12.54    1.95
  -1  15   2   13.38    2.55
   1  15  -2   10.70    0.91
   1  15  -2   10.65    1.84
  -1  15   2    9.43    2.33
  -1 -15  -2   12.27    1.18
  -1  15   2    8.99    0.91
   1  15  -2    9.48    1.04
  -1  15   2   11.89    1.14
   1  15   2   13.12    2.52
   1 -15  -2   11.13    0.95
  -1  15  -2   12.25    1.23
   1  15   2   11.38    0.94
  -1 -15   2   10.55    0.88
   1 -15  -2    9.38    2.40
   1 -15  -2   10.70    2.61
  -1  15  -2   10.31    0.98
  -1  15  -2   10.19    0.95
   1  15   2   10.30    0.93
   1  15   2    9.81    0.81
  -1 -15   2    8.29    0.93
  -1 -15   2   11.30    1.07
  -1 -15   2   10.89    0.76
   1 -15  -2   11.06    1.05
   1  15   2   10.44    0.86
   1 -15  -2   15.87    1.79
   1  15   2    8.33    2.63
   1  15   2   11.53    1.09
   1 -15  -2   10.56    2.65
  -1 -15   2   10.74    1.26
   1  15   2   10.88    1.02
  -1 -15   2   11.90    1.88
  -1 -15   2    9.70    0.99
   1  15   2   11.07    2.53
  -1  15  -2   10.24    1.09
  -1  15  -2   12.01    1.24
  -1 -15   2   11.21    1.84
   3  15  -2    6.52    0.99
  -3 -15  -2   13.14    4.39
  -3 -15  -2    6.41    4.61
  -3  15   2    2.43    3.82
  -3  15   2    6.23    0.83
  -3 -15  -2    6.46    2.23
   3 -15   2    6.92    1.35
  -3  15   2    9.16    1.26
  -3 -15  -2    5.91    2.41
  -3  15   2    7.10    1.00
  -3  15   2    8.52    4.08
   3 -15   2    8.60    1.15
   3  15  -2    7.39    0.78
  -3  15   2    9.64    1.26
  -3  15   2    3.95    1.16
   3  15  -2    8.35    1.07
  -3 -15  -2    6.20    3.98
   3  15  -2    8.26    1.29
  -3 -15  -2    7.37    1.30
   3  15  -2    7.88    1.28
   3 -15   2    8.77    1.39
   3 -15   2    4.99    1.31
   3 -15   2   11.61    3.44
  -3  15   2   10.84    3.89
  -3 -15  -2    9.49    4.44
   3 -15   2    8.77    1.64
   3  15   2    6.29    4.32
  -3  15  -2    4.69    1.05
   3  15   2    6.87    1.04
  -3  15  -2    8.44    1.12
  -3 -15   2    7.60    0.90
   3  15   2    6.29    0.83
  -3 -15   2    6.87    1.68
   3 -15  -2    8.15    1.14
   3 -15  -2    7.41    1.49
   3  15   2    5.04    3.76
   3  15   2    7.01    0.97
   3 -15  -2    5.16    3.50
   3  15   2    8.85    1.16
   3 -15  -2    7.03    1.14
  -3 -15   2    7.23    1.31
   3  15   2    7.80    1.20
  -3  15  -2    7.17    1.21
   3  15   2    7.38    0.88
   3 -15  -2    7.49    3.85
  -3  15  -2    1.58    2.85
  -3  15  -2    6.48    1.29
  -3  15  -2    7.18    2.98
  -3 -15   2    7.52    1.21
   3 -15  -2    7.22    4.63
   5 -15   2    3.25    1.12
   5  15  -2    3.16    1.48
  -5 -15  -2    9.48    2.88
   5 -15   2    6.14    1.69
  -5  15   2    2.11    1.53
  -5  15   2    3.60    1.53
   5 -15   2    3.41    0.94
  -5 -15  -2    2.01    1.68
  -5 -15  -2    7.20    3.06
   5  15  -2    3.88    1.24
  -5  15   2    2.02    1.23
   5 -15   2    3.51    1.32
   5  15  -2    2.44    1.22
  -5  15   2    3.72    1.50
   5  15  -2    3.90    1.25
   5  15   2    3.75    1.17
   5  15   2    4.48    1.33
  -5 -15   2    4.89    2.15
   5  15   2    4.87    1.30
   5 -15  -2    2.72    1.45
  -5  15  -2    5.68    1.76
   5 -15  -2    2.13    1.39
  -5  15  -2    3.66    1.15
  -5 -15   2    2.22    1.26
   5 -15  -2    3.54    1.27
   5  15   2    4.22    1.10
  -5 -15   2    3.45    2.45
   5  15   2    3.16    1.37
   5  15   2    2.62    1.46
  -5  15  -2    3.26    1.15
  -5 -15   2    1.21    1.69
   5 -15  -2    2.96    1.23
   7  15  -2    1.38    1.68
  -7  15   2    4.11    1.69
   7 -15   2    0.82    1.27
  -7 -15  -2    2.69    2.22
   7  15  -2    1.18    1.73
  -7 -15  -2   -5.93    3.96
   7 -15   2    1.33    1.38
   7 -15   2    1.22    1.66
  -7  15   2   -0.02    2.34
  -7  15   2    2.08    2.32
  -7 -15   2    1.37    3.56
   7 -15  -2    4.38    1.59
  -7  15  -2    3.71    1.53
   7  15   2    0.04    1.60
   7 -15  -2    0.80    2.07
   7 -15  -2    0.55    1.73
  -7  15  -2    2.11    2.01
   7  15   2    2.05    1.34
  -7  15  -2    0.89    1.44
   7 -15  -2    1.20    1.28
  -7 -15   2    3.21    2.40
   7  15   2    1.62    1.71
  -7 -15   2    4.64    1.84
   0 -16  -2    1.38    1.73
   0 -16   2    2.51    0.39
   0  16  -2    3.65    0.69
   0 -16  -2    3.15    0.79
   0 -16  -2    0.24    1.79
   0  16  -2    3.68    0.59
   0  16   2    2.58    0.43
   0 -16  -2    2.57    0.60
   0 -16  -2    2.88    0.54
   0  16   2    3.22    0.49
   0  16  -2    2.76    0.46
   0  16   2    5.05    2.28
   0  16   2    2.61    0.52
   0 -16   2    1.87    0.57
   0  16   2    3.29    0.50
   0 -16  -2    3.23    1.02
   0  16   2    2.52    1.79
   0 -16  -2    2.24    1.77
   0  16  -2    2.38    0.62
   0  16  -2    2.69    0.51
   0  16   2    0.40    1.74
   0  16   2    3.37    0.50
  -2 -16  -2    2.04    1.31
   2  16  -2    2.83    0.63
  -2  16   2    2.72    0.85
  -2  16   2    2.91    0.53
   2  16  -2    2.83    0.54
   2  16  -2    3.05    0.70
  -2  16   2    3.77    2.65
  -2 -16  -2    3.33    3.08
   2  16  -2    2.34    0.44
  -2  16   2    2.98    0.69
   2  16  -2    2.14    2.31
  -2 -16  -2    1.99    0.60
  -2  16   2    2.30    0.64
   2 -16   2    3.07    1.21
  -2 -16  -2    6.65    2.95
  -2 -16  -2    2.89    0.61
  -2  16   2    2.70    0.57
   2 -16   2    4.94    0.94
  -2 -16  -2    3.41    2.74
   2  16  -2   -0.25    2.32
  -2  16   2   -0.20    2.71
   2  16  -2    2.89    0.77
   2  16  -2    2.89    0.54
  -2 -16  -2    3.35    1.64
   2 -16   2    2.75    1.40
   2 -16   2    2.50    0.54
   2 -16   2    2.75    0.90
  -2 -16  -2    2.40    2.57
   2 -16   2    2.68    0.85
   2  16  -2    1.70    3.63
   2  16  -2    2.39    0.40
  -2  16   2   -3.15    2.46
  -2 -16   2    3.41    0.92
  -2 -16   2    2.61    0.68
   2 -16  -2    2.63    0.66
   2  16   2    2.42    0.43
   2  16   2    3.56    0.59
  -2 -16   2    1.21    2.97
   2  16   2    2.67    0.51
  -2 -16   2    2.88    0.39
   2  16   2    1.99    0.52
  -2  16  -2    1.34    1.06
  -2 -16   2   -0.51    2.84
   2 -16  -2    1.95    2.81
   2 -16  -2    2.22    0.80
  -2  16  -2    3.49    0.77
  -2  16  -2    3.33    1.00
   2 -16  -2    2.24    0.86
   2  16   2    3.54    1.02
   2 -16  -2    3.48    2.61
  -2  16  -2    2.28    0.55
  -2  16  -2    2.82    1.05
   2  16   2    2.65    0.52
  -2  16  -2    2.54    0.70
  -2  16  -2    2.05    0.79
  -2 -16   2    2.89    3.01
  -2  16  -2    2.76    0.60
  -2 -16   2    2.61    0.81
   2  16   2    2.10    2.64
  -2  16  -2    3.22    1.03
   2 -16  -2    3.78    2.68
  -4 -16  -2    6.31    7.77
   4  16  -2    1.77    0.88
   4 -16   2    2.38    1.07
  -4  16   2    4.03    1.15
  -4 -16  -2   -7.76    7.48
  -4 -16  -2    3.97    7.74
   4  16  -2    0.88    0.75
  -4  16   2    2.46    1.21
  -4  16   2    2.59    1.05
  -4 -16  -2    2.78    2.20
   4  16  -2    2.11    1.31
   4  16  -2    3.57    0.85
  -4  16   2    1.94    1.13
   4 -16   2    3.84    1.18
  -4  16   2    1.98    0.67
  -4 -16  -2    9.90    7.40
   4 -16   2    2.91    0.84
   4 -16   2    1.37    1.22
  -4 -16  -2    4.43    1.34
   4  16  -2    2.24    1.04
  -4 -16  -2    1.00    2.17
   4  16   2    1.85    0.79
  -4  16  -2    1.98    1.08
  -4  16  -2    4.13    0.97
  -4 -16   2    2.04    1.04
   4 -16  -2    4.97    1.39
   4  16   2    2.50    0.77
   4 -16  -2    3.92    1.20
   4  16   2    1.88    0.92
  -4 -16   2    4.58    1.44
   4  16   2    1.04    7.43
   4  16   2    2.16    0.87
   4  16   2    4.35    0.87
  -4 -16   2    1.48    1.54
   4 -16  -2    2.18    0.99
  -4 -16   2    2.41    1.65
  -4  16  -2    3.50    1.03
   4  16   2    0.25    7.22
  -6 -16  -2    3.44    2.66
   6  16  -2   -0.95    1.35
   6  16  -2    1.05    2.03
  -6  16   2    0.45    1.88
  -6  16   2    2.70    1.53
   6 -16   2    2.15    1.19
  -6 -16  -2    1.80    2.16
   6 -16   2    0.83    1.26
   6  16  -2    0.89    1.40
   6  16  -2    1.44    1.56
   6 -16   2    2.28    1.53
  -6 -16  -2   -0.08    2.89
  -6  16   2   -1.07    1.75
   6 -16   2    1.03    1.04
  -6  16  -2    2.62    1.83
   6  16   2    2.46    1.44
   6 -16  -2    0.73    1.57
  -6  16  -2    2.33    1.07
  -6 -16   2    6.73    3.08
  -6 -16   2    2.79    2.08
   6 -16  -2    0.85    1.36
   6  16   2    3.70    1.60
  -6 -16   2   -1.98    2.55
   6  16   2    0.97    1.46
   6  16   2   -0.24    1.23
   6 -16  -2   -0.81    1.38
  -6 -16   2    2.17    1.60
  -6  16  -2    1.53    1.10
   6 -16  -2    5.30    2.10
  -1 -17  -2    3.06    2.18
   1  17  -2    1.09    0.42
   1  17  -2    1.99    0.64
  -1  17   2   -0.17    2.45
  -1  17   2    0.47    0.37
  -1 -17  -2    1.00    0.73
  -1 -17  -2    0.52    2.26
  -1  17   2    0.70    2.24
  -1 -17  -2    1.06    0.50
  -1 -17  -2   -1.29    2.02
   1  17  -2    1.06    0.38
  -1  17   2    1.35    2.25
  -1 -17  -2   -0.05    1.01
  -1  17   2    0.83    0.41
   1  17  -2    1.90    0.64
  -1  17   2    1.23    0.47
  -1 -17  -2    1.97    0.59
   1  17  -2    2.92    1.52
  -1 -17  -2    1.44    0.47
   1  17  -2    0.69    0.37
  -1  17   2    2.22    0.62
   1 -17   2    1.34    0.50
   1  17  -2    3.22    1.42
   1 -17  -2   -1.64    1.95
   1 -17  -2    2.21    0.46
   1 -17  -2    1.99    1.96
   1  17   2    1.09    0.39
  -1  17  -2    1.30    0.48
  -1 -17   2    1.13    0.43
  -1 -17   2    2.26    1.40
  -1 -17   2    1.85    0.46
  -1 -17   2    0.79    1.16
   1  17   2    1.52    0.43
  -1 -17   2    1.07    0.24
   1  17   2    1.17    2.10
   1  17   2    0.97    0.40
  -1 -17   2    1.04    0.38
   1  17   2    0.91    0.34
  -1 -17   2    1.37    0.65
  -1  17  -2    1.69    0.46
  -1 -17   2    1.31    0.48
   1 -17  -2    0.72    0.37
   1  17   2    1.34    2.06
  -1  17  -2    1.45    0.46
   1  17   2    0.65    0.31
  -1 -17   2    1.76    1.14
   1  17   2    0.76    0.65
   1 -17  -2    1.39    0.86
  -1 -17   2   -0.56    1.30
   1 -17  -2   -1.78    2.06
  -1  17  -2    0.88    0.53
   1  17   2    3.77    2.26
  -1  17  -2    1.95    0.67
  -3  17   2    1.30    0.94
  -3  17   2    0.83    4.21
  -3 -17  -2   -8.35    4.41
   3 -17   2    0.12    0.58
   3  17  -2   -0.24    0.44
   3  17  -2    0.50    0.46
  -3  17   2    3.27    4.51
   3 -17   2    4.97    3.08
  -3  17   2    1.11    0.77
  -3  17   2    1.42    0.70
   3 -17   2    1.24    0.84
  -3 -17  -2    1.09    3.79
  -3 -17  -2    4.02    4.29
   3 -17   2    1.14    0.84
  -3 -17  -2    1.31    0.82
   3  17  -2    0.42    0.96
   3 -17   2   -0.67    0.86
  -3 -17  -2   -1.55    1.86
   3 -17   2    0.68    0.95
  -3 -17  -2   -4.93    3.82
   3  17  -2   -0.69    0.46
   3  17  -2    0.96    0.70
  -3  17   2   -0.45    0.54
  -3 -17  -2    0.66    1.88
  -3  17   2    3.41    4.53
  -3  17   2    0.58    0.44
  -3 -17   2   -0.21    0.81
  -3  17  -2    0.23    2.46
   3 -17  -2   -0.33    0.58
  -3  17  -2   -0.11    0.56
   3  17   2    1.16    0.59
   3 -17  -2    0.24    0.49
  -3 -17   2    0.13    1.00
  -3 -17   2    0.13    1.21
   3  17   2    8.28    4.82
   3 -17  -2    6.32    3.53
   3  17   2    0.31    0.47
   3 -17  -2    1.67    3.59
   3 -17  -2    2.61    4.38
  -3  17  -2    0.68    0.52
   3  17   2    0.81    0.51
  -3  17  -2    0.41    0.68
  -3  17  -2    1.15    0.69
   3 -17  -2    1.80    0.94
   3  17   2   -4.49    4.38
   3  17   2    0.13    0.60
  -3 -17   2    1.31    0.83
   3  17   2   -0.33    0.42
  -3  17  -2   -2.09    2.53
   3  17   2    1.18    0.49
   5 -17   2    1.75    0.91
  -5 -17  -2    1.80    2.43
   5  17  -2    0.32    1.16
   5 -17   2    0.05    1.12
  -5  17   2    0.94    1.33
  -5  17   2    0.28    1.11
  -5 -17  -2    2.58    1.90
   5 -17   2    0.98    0.95
   5  17  -2   -1.14    1.03
   5 -17   2   -0.73    1.22
  -5 -17  -2    1.84    2.37
   5  17  -2   -1.07    1.63
   5  17  -2    1.66    1.06
   5  17  -2    1.19    1.09
  -5  17   2    0.62    1.62
  -5  17   2    2.94    1.45
   5  17   2   -0.39    1.04
  -5 -17   2   -0.73    1.17
  -5  17  -2   -0.15    0.77
   5  17   2   -1.14    1.05
  -5  17  -2    0.09    1.48
  -5 -17   2   -2.05    1.53
   5 -17  -2   -0.54    1.29
  -5  17  -2    0.89    0.87
  -5 -17   2    1.26    2.29
   5  17   2    0.84    1.58
   5  17   2   -1.30    0.90
   5 -17  -2    0.62    1.27
   5 -17  -2    0.69    1.12
   5  17   2   -1.23    1.08
   5 -17  -2   -0.42    1.41
  -5 -17   2   -1.36    1.91
   7 -17   2   -0.94    1.67
  -7  17   2    0.00    2.33
   7  17  -2    1.36    1.78
   7 -17   2    1.90    1.37
   7  17  -2    1.41    1.63
   7 -17   2   -2.10    1.19
  -7  17   2   -1.51    1.55
  -7 -17  -2    5.07    4.06
  -7 -17  -2   -5.20    2.08
   7  17   2   -1.59    1.36
  -7 -17   2    6.52    3.66
  -7 -17   2   -1.52    2.38
   7  17   2   -2.09    1.61
   7  17   2   -3.53    1.75
   7  17   2    3.05    2.14
   7 -17  -2   -2.18    1.62
  -7 -17   2   -3.60    1.59
  -7  17  -2    0.17    2.05
   7 -17  -2    0.77    1.45
   7 -17  -2   -3.31    1.75
  -7  17  -2   -0.88    1.38
  -7  17  -2   -0.44    1.33
   0 -18  -2    0.41    0.41
   0  18  -2    0.53    0.34
   0  18   2    0.69    0.42
   0 -18   2    1.16    0.55
   0  18   2    0.53    0.29
   0  18  -2    0.50    0.46
   0  18   2    0.04    2.29
   0 -18  -2   -0.74    2.03
   0  18   2   -1.80    1.95
   0  18   2    0.56    0.37
   0 -18  -2   -2.82    1.72
   0  18  -2    0.31    0.34
   0  18   2   -0.41    2.12
   0  18   2    0.90    0.34
   0 -18   2    1.21    0.28
   0 -18  -2    3.77    1.92
   0 -18  -2    1.82    0.87
   0  18   2    0.76    0.35
   0  18  -2    1.29    0.45
   0 -18   2    0.75    0.36
   0 -18  -2    1.44    0.42
   0  18  -2    0.36    0.46
   0 -18  -2    1.24    0.60
   2  18  -2    0.50    0.48
  -2  18   2    3.78    2.92
  -2  18   2    0.20    0.61
   2  18  -2   -0.07    0.32
  -2 -18  -2    0.65    1.49
   2 -18   2    0.38    0.43
  -2  18   2    0.18    0.52
   2 -18   2    1.29    0.65
  -2  18   2   -0.26    0.46
  -2 -18  -2    0.56    2.77
  -2  18   2    1.55    2.77
  -2  18   2   -2.17    2.80
  -2  18   2   -0.07    0.35
  -2 -18  -2    0.08    0.47
  -2 -18  -2    4.31    3.12
   2 -18   2    0.02    0.60
  -2 -18  -2    0.40    1.31
   2 -18   2    0.81    0.69
  -2 -18  -2    0.88    0.45
  -2  18   2    0.03    0.72
  -2 -18  -2    0.84    3.30
   2  18  -2    0.15    0.38
   2  18  -2    0.60    0.68
   2  18  -2    0.31    0.61
  -2 -18  -2   -2.18    2.60
  -2 -18   2    0.77    0.57
   2  18   2    0.27    0.43
   2 -18  -2    1.38    0.54
   2  18   2    0.04    0.35
  -2 -18   2    1.66    0.77
   2  18   2    0.83    0.38
   2 -18  -2   -0.76    0.74
  -2  18  -2    0.53    0.46
  -2  18  -2    0.21    0.41
  -2 -18   2    1.32    0.87
  -2  18  -2   -0.34    0.49
   2  18   2   -0.35    0.34
   2 -18  -2   -0.12    0.66
   2 -18  -2    3.47    2.80
  -2  18  -2    0.35    0.58
   2 -18  -2    0.13    2.55
  -2  18  -2    0.84    0.69
  -2 -18   2   -0.32    0.53
   2  18   2    0.69    1.02
   2  18   2   -1.97    2.92
   2 -18  -2   -3.40    2.99
   2  18   2    0.46    0.36
  -4  18   2    0.95    0.83
   4 -18   2   -1.48    1.04
  -4  18   2    0.27    0.60
   4  18  -2   -0.18    0.92
   4 -18   2    0.04    0.66
  -4  18   2    2.39    1.30
  -4 -18  -2    1.11    1.25
   4  18  -2    1.70    0.80
  -4  18   2    0.70    1.12
   4  18  -2    0.12    0.64
   4 -18   2   -1.99    1.01
  -4  18   2   -0.11    0.86
   4  18  -2    1.99    1.63
  -4 -18  -2   -0.81    2.07
  -4 -18  -2    2.40    2.25
   4 -18   2    0.51    0.92
  -4  18  -2   -0.11    1.04
  -4  18  -2   -0.29    0.70
   4  18   2    0.35    0.70
  -4 -18   2   -0.76    1.45
   4  18   2    0.43    0.81
  -4  18  -2   -0.10    0.80
   4 -18  -2    0.24    1.14
   4  18   2    0.94    0.80
  -4  18  -2   -0.12    0.76
   4  18   2    0.63    0.75
   4  18   2    0.18    0.88
   4 -18  -2   -0.86    0.87
   4 -18  -2   -0.11    0.69
   4  18   2    0.18    0.66
  -4 -18   2   -0.10    1.21
  -4 -18   2   -0.88    1.46
  -4 -18   2    1.71    1.10
   6 -18   2   -1.44    1.01
  -6 -18  -2    0.08    2.75
  -6  18   2    3.32    1.48
  -6 -18  -2   -6.09    2.59
  -6 -18  -2   -1.37    2.02
   6 -18   2   -0.52    1.60
   6  18  -2   -0.42    1.44
   6 -18   2    0.80    1.10
   6  18  -2   -0.11    1.37
  -6  18   2   -3.94    1.99
   6  18  -2    0.04    1.47
   6 -18   2   -0.51    1.34
  -6  18   2   -0.91    1.79
   6  18   2    1.31    1.47
  -6  18  -2   -1.46    1.83
   6  18   2   -0.16    1.35
   6 -18  -2   -0.51    1.34
  -6 -18   2   -1.81    1.39
  -6 -18   2   -3.46    2.36
   6  18   2    0.76    1.44
   6 -18  -2    0.42    1.69
   6  18   2    1.14    1.79
   6  18   2   -0.43    1.14
  -6 -18   2   -1.94    2.90
  -6  18  -2    0.36    1.04
  -6  18  -2   -0.69    1.13
   6 -18  -2   -1.50    1.39
  -6 -18   2   -0.59    2.05
   6 -18  -2   -1.19    1.66
   1  19  -2   46.42    3.53
  -1 -19  -2   40.81    3.55
  -1 -19  -2   39.71    2.64
  -1  19   2   42.59    5.45
   1  19  -2   37.93    3.72
  -1  19   2   31.11    2.47
  -1  19   2   43.15    2.66
  -1  19   2   43.27    5.08
   1  19  -2   40.31    2.80
   1  19  -2   40.77    2.62
  -1 -19  -2   33.30    4.89
   1 -19   2   38.57    2.76
  -1 -19  -2   35.45    2.50
  -1  19   2   37.17    2.69
  -1 -19  -2   40.77    2.82
  -1 -19  -2   36.60    5.21
   1  19  -2   42.22    2.85
   1 -19   2   38.61    2.64
  -1 -19  -2   46.22    5.10
  -1 -19  -2   39.49    3.29
  -1  19   2   38.56    2.68
   1  19  -2   42.24    2.78
  -1  19   2   34.50    4.81
   1  19  -2   39.63    2.52
  -1  19   2   38.62    2.64
  -1 -19   2   34.36    3.52
  -1 -19   2   35.32    2.48
  -1  19  -2   45.40    3.06
  -1 -19   2   41.68    3.23
   1 -19  -2   43.82    4.89
   1  19   2   42.71    4.93
   1  19   2   39.70    2.50
   1 -19  -2   42.28    2.79
  -1 -19   2   38.12    3.79
  -1 -19   2   34.32    2.56
  -1  19  -2   39.94    2.68
   1  19   2   37.81    2.68
   1  19   2   36.40    2.45
  -1 -19   2   37.69    2.51
   1  19   2   34.87    4.83
  -1 -19   2   39.67    2.70
   1 -19  -2   41.61    5.41
  -1  19  -2   39.82    2.86
   1 -19  -2   38.85    2.60
  -1 -19   2   37.88    2.28
   1  19   2   38.73    2.58
   1  19   2   30.09    4.66
  -1  19  -2   39.23    2.74
   1  19   2   39.70    2.61
   1 -19  -2   38.72    3.03
  -1  19  -2   43.92    2.65
   1 -19  -2   35.44    5.03
   1  19   2   37.62    2.69
  -1 -19   2   35.90    3.33
  -1 -19   2   39.34    3.15
   3 -19   2   24.92    2.61
   3  19  -2   26.65    2.07
   3 -19   2   24.01    2.44
  -3 -19  -2   28.78    6.36
  -3  19   2   31.22    6.01
  -3  19   2   22.63    2.59
  -3  19   2   17.96    5.84
   3 -19   2   30.02    2.63
   3 -19   2   13.63    3.46
  -3 -19  -2   21.38    3.81
  -3  19   2   26.80    2.02
  -3 -19  -2   26.86    5.82
  -3  19   2   28.06    6.48
   3  19  -2   30.61    2.49
   3 -19   2   27.52    2.08
  -3 -19  -2   15.14    5.83
  -3  19   2   22.41    2.15
  -3 -19  -2   27.50    2.52
   3  19  -2   25.01    2.11
   3  19  -2   25.25    1.83
  -3  19   2   30.35    2.48
   3 -19   2   24.08    2.52
  -3 -19  -2   29.32    5.86
  -3 -19  -2   22.66    3.96
   3 -19  -2   24.84    2.54
  -3  19  -2   31.66    2.69
  -3 -19   2   25.04    3.50
   3 -19  -2   14.12    4.91
  -3 -19   2   30.39    2.62
  -3  19  -2   24.88    3.41
  -3  19  -2   26.89    3.72
   3  19   2   25.16    2.08
   3 -19  -2   28.26    6.08
   3  19   2   29.18    2.30
  -3 -19   2   26.95    3.65
  -3  19  -2   26.49    2.18
   3  19   2   25.95    1.88
   3  19   2   14.37    5.32
   3 -19  -2   27.25    2.28
  -3 -19   2   27.68    2.53
   3  19   2   26.26    2.09
   3 -19  -2   15.57    4.73
  -3  19  -2   27.60    2.32
   3  19   2   29.72    2.19
   3  19   2   22.99    6.06
   3  19   2   26.84    1.94
  -3  19  -2   28.28    2.45
   5 -19   2   15.50    2.28
  -5  19   2   18.11    2.58
   5  19  -2   14.09    2.03
  -5 -19  -2   15.82    3.87
  -5 -19  -2   23.18    4.16
   5 -19   2   17.08    2.72
   5  19  -2   14.24    2.15
  -5  19   2   18.82    2.52
  -5  19   2   13.62    2.45
   5 -19   2   16.95    2.08
  -5  19   2   12.47    1.70
   5  19  -2   20.19    2.29
  -5 -19  -2   18.03    2.86
   5 -19   2   13.76    2.09
  -5 -19   2   13.56    2.80
   5  19   2   10.71    1.82
   5 -19  -2   11.60    2.10
  -5 -19   2   18.92    3.81
   5  19   2   15.10    2.22
  -5  19  -2   16.87    2.59
   5  19   2   12.82    1.94
   5  19   2   17.87    2.54
  -5  19  -2   16.22    2.19
   5 -19  -2   11.89    2.47
  -5 -19   2   16.70    2.60
  -5  19  -2   17.28    2.25
  -5 -19   2   13.41    3.12
   5  19   2   10.67    1.91
   5 -19  -2   13.13    2.24
  -7  19   2    8.48    2.64
   7 -19   2    6.01    2.22
   7 -19   2    7.05    1.83
  -7 -19  -2    3.84    4.33
   7  19  -2    3.46    1.95
  -7  19   2    3.30    1.81
   7  19  -2    3.54    1.91
  -7 -19  -2    5.56    2.60
   7 -19   2    8.62    1.92
   7  19   2    5.58    1.67
  -7  19  -2    7.11    1.76
   7 -19  -2    8.61    2.44
  -7 -19   2    0.99    3.87
   7 -19  -2    9.17    1.91
   7 -19  -2    5.86    1.88
  -7  19  -2    6.69    1.88
  -7  19  -2    5.48    2.48
  -7 -19   2   -1.25    2.63
   7  19   2    6.28    2.24
  -7 -19   2    8.06    2.13
   7  19   2    9.20    2.08
   0 -20   2    0.74    0.35
   0  20   2   -0.56    2.28
   0  20   2    0.28    0.32
   0  20  -2    0.37    0.42
   0 -20  -2   -1.12    2.19
   0 -20   2   -0.22    0.37
   0  20   2    0.53    0.36
   0  20   2   -0.03    0.34
   0  20   2   -0.90    2.28
   0  20  -2    0.42    0.43
   0 -20   2    0.11    0.62
   0 -20  -2    0.40    0.97
   0  20  -2    0.42    0.33
   0  20   2   -2.72    2.51
   0 -20  -2    0.93    0.40
   0 -20  -2    0.55    0.63
   0 -20  -2    0.57    2.20
   0  20  -2    0.31    0.47
   0 -20  -2    2.98    2.45
   0  20  -2    0.90    0.52
   0 -20  -2   -0.53    0.40
   0 -20   2    0.37    0.26
   0  20   2    0.27    0.39
   0  20   2   -0.36    0.40
  -2 -20  -2   -0.29    1.43
  -2  20   2    1.68    3.50
  -2 -20  -2   -0.44    3.44
  -2  20   2    0.67    3.34
  -2 -20  -2    1.28    1.52
  -2 -20  -2    1.11    3.42
  -2  20   2    0.73    0.55
  -2  20   2    1.99    3.32
  -2 -20  -2    0.22    0.55
   2 -20   2    0.90    0.63
   2 -20   2    0.68    0.82
   2 -20   2    0.87    0.74
  -2 -20  -2   -0.38    0.50
   2 -20   2    1.18    0.50
   2  20  -2   -0.26    0.73
  -2  20   2   -0.14    0.76
   2  20  -2    0.27    0.37
   2  20  -2   -3.09    2.83
   2  20  -2   -0.27    0.66
  -2  20   2    0.16    0.43
  -2  20   2    0.40    0.60
  -2  20   2    0.16    0.63
  -2 -20  -2    5.94    3.53
   2  20  -2   -0.30    0.53
   2  20  -2   -0.08    0.39
  -2 -20  -2    0.77    3.91
   2 -20   2   -0.01    0.62
   2  20   2    0.01    0.41
  -2 -20   2   -0.70    0.83
   2 -20  -2    0.38    0.82
  -2  20  -2    0.27    0.43
  -2 -20   2   -2.65    2.39
  -2 -20   2    0.54    0.72
   2 -20  -2    1.32    2.95
   2 -20  -2    1.24    0.73
   2  20   2    0.93    0.45
  -2 -20   2    0.54    0.61
   2  20   2   -3.24    3.18
  -2 -20   2   -0.78    1.30
  -2  20  -2    0.10    0.72
   2 -20  -2   -0.32    0.42
   2  20   2   -0.05    0.39
  -2 -20   2    0.19    0.53
  -2  20  -2    0.15    0.52
   2 -20  -2   -2.54    3.11
   2 -20  -2    2.21    3.32
  -2 -20   2    0.62    2.50
  -2  20  -2   -0.21    0.52
  -2  20  -2    0.76    0.53
   2  20   2   -0.35    0.40
   2  20   2   -0.05    0.46
   4 -20   2   -1.48    1.23
   4 -20   2    0.12    0.75
  -4  20   2    0.51    0.67
   4  20  -2   -0.51    0.67
   4  20  -2   -1.17    1.00
  -4  20   2   -0.40    0.89
  -4  20   2    1.86    1.34
   4  20  -2   -0.53    0.75
   4 -20   2    0.33    1.12
  -4  20   2   -0.94    0.96
   4  20  -2    1.11    0.84
  -4 -20  -2   -0.83    2.20
  -4 -20  -2    4.92    2.74
   4 -20   2    1.52    1.04
  -4  20   2   -0.73    1.19
  -4 -20  -2    0.03    1.24
  -4  20  -2   -0.11    0.79
  -4 -20   2   -0.68    1.36
   4  20   2    0.45    0.78
   4  20   2    0.43    0.86
  -4  20  -2   -0.06    0.78
   4  20   2    0.25    0.77
   4  20   2    0.93    0.73
   4 -20  -2    1.02    1.32
  -4 -20   2   -1.19    1.72
   4 -20  -2    0.63    0.95
   4  20   2    0.70    0.72
  -4 -20   2   -0.92    1.49
  -4  20  -2   -0.04    0.88
   4  20   2   -0.01    0.87
  -4 -20   2   -0.19    1.05
   4 -20  -2   -0.65    0.73
  -4  20  -2    1.28    1.09
  -6 -20  -2    2.09    2.91
  -6 -20  -2   -1.00    2.06
   6 -20   2   -1.20    1.67
  -6 -20  -2   -2.57    2.89
   6 -20   2    0.66    1.46
  -6  20   2    1.64    1.56
   6 -20   2    1.38    1.13
   6  20  -2    1.42    1.53
   6  20  -2   -1.76    1.39
   6 -20   2   -0.30    1.20
   6  20  -2    2.74    1.56
  -6  20   2    2.69    2.14
  -6  20  -2    1.03    1.85
   6 -20  -2    0.43    1.51
  -6 -20   2    0.51    1.53
  -6 -20   2    1.78    2.08
   6  20   2   -0.60    1.21
   6 -20  -2   -2.89    1.71
  -6 -20   2   -3.94    2.47
   6  20   2   -1.96    1.79
   6 -20  -2    0.69    1.57
  -6  20  -2    2.02    1.12
   6  20   2   -0.92    1.56
   6  20   2    0.73    1.53
   6  20   2    0.28    1.56
  -6  20  -2    1.34    1.20
  -6 -20   2   -1.81    3.04
   6 -20  -2   -0.27    1.78
  -1 -21  -2   10.75    1.45
  -1  21   2    8.26    1.02
   1 -21   2   13.06    1.40
  -1  21   2   15.26    4.00
   1 -21   2    9.46    1.74
  -1 -21  -2   11.57    1.80
  -1 -21  -2   11.39    2.27
  -1  21   2   10.49    3.23
  -1 -21  -2    9.71    3.20
   1  21  -2   10.93    1.24
  -1  21   2    9.73    1.06
   1  21  -2   10.04    1.06
  -1 -21  -2    9.89    3.18
   1 -21   2    9.85    1.13
   1  21  -2   10.07    1.23
   1  21  -2   10.89    1.31
   1  21  -2   10.36    1.97
   1  21  -2    9.35    0.98
  -1 -21  -2   10.82    1.24
  -1 -21  -2    9.83    3.11
   1  21  -2   12.34    2.31
  -1  21   2   10.48    1.16
  -1  21   2    9.12    1.06
  -1  21   2    9.70    1.13
  -1  21   2    5.89    3.05
   1 -21   2   11.24    1.24
  -1 -21  -2    9.80    1.06
   1  21   2   10.11    3.41
   1 -21  -2   10.72    1.06
  -1 -21   2    9.78    2.11
  -1  21  -2   11.10    1.36
   1  21   2    9.94    0.98
   1 -21  -2    9.12    1.08
   1  21   2   10.19    1.02
  -1 -21   2   11.08    1.03
  -1  21  -2   11.74    1.15
  -1  21  -2   12.27    1.10
   1  21   2   10.04    1.24
   1 -21  -2   11.70    3.14
  -1 -21   2   11.29    2.10
  -1 -21   2    8.89    2.21
  -1  21  -2   11.70    1.39
   1 -21  -2    7.94    3.00
  -1  21  -2   10.12    1.14
  -1 -21   2    8.91    1.07
  -1 -21   2   14.39    1.85
  -1 -21   2    9.86    1.77
  -1 -21   2    9.32    0.92
   1  21   2    6.27    3.08
   1 -21  -2    7.21    3.41
   1 -21  -2   13.39    1.81
   1  21   2   11.63    1.04
  -1 -21   2    9.67    1.00
   1  21   2    8.71    1.49
   1  21   2    9.78    0.94
  -1 -21   2    9.24    1.65
   1  21   2   11.70    3.24
   3 -21   2    7.63    1.72
  -3  21   2    9.09    1.30
  -3 -21  -2    4.65    2.75
   3  21  -2    5.45    0.84
  -3  21   2    9.24    1.73
  -3  21   2    5.82    1.14
   3 -21   2    9.49    1.67
   3 -21   2    8.99    1.09
   3  21  -2    7.35    1.08
   3 -21   2    9.66    1.78
  -3 -21  -2    8.02    5.08
  -3  21   2    7.95    1.06
  -3 -21  -2    9.62    2.93
   3  21  -2    5.99    1.29
  -3 -21  -2    1.08    4.91
  -3 -21  -2    8.62    1.44
  -3  21   2    9.28    1.47
   3 -21   2    6.63    2.91
   3 -21  -2    7.24    1.57
  -3  21  -2    7.74    1.35
   3  21   2    7.56    1.13
   3  21   2    6.21    6.19
  -3 -21   2    7.04    1.55
   3  21   2    6.54    0.91
  -3  21  -2    7.13    1.53
  -3  21  -2    7.34    1.19
  -3  21  -2    9.53    2.52
  -3  21  -2    7.86    2.61
  -3 -21   2    8.38    2.04
   3  21   2    8.46    1.17
  -3  21  -2    6.38    1.22
  -3 -21   2    6.99    1.72
   3  21   2    7.76    0.96
  -3 -21   2    5.01    1.45
   3 -21  -2    6.28    1.12
   3  21   2    8.36    1.26
   5  21  -2    4.17    1.48
  -5  21   2    5.39    2.05
   5  21  -2    2.72    1.35
   5 -21   2    5.78    1.21
  -5  21   2    2.89    1.22
   5  21  -2    5.97    1.39
  -5 -21  -2    0.06    2.84
  -5  21   2    6.73    2.06
   5 -21   2    3.67    1.66
  -5 -21  -2    1.94    3.00
   5 -21   2    5.12    1.56
   5  21  -2    4.53    1.47
  -5 -21  -2    1.12    2.05
  -5  21   2    6.56    1.82
   5 -21   2    6.13    2.09
   5 -21  -2    3.13    1.37
   5 -21  -2    2.73    2.03
  -5 -21   2    7.55    2.94
  -5 -21   2    7.67    2.97
   5  21   2    4.87    1.36
  -5  21  -2    5.54    1.37
  -5  21  -2    7.18    2.02
   5  21   2    4.79    1.51
   5  21   2    3.98    1.85
   5 -21  -2    3.98    1.66
  -5  21  -2    3.93    1.17
   5  21   2    5.42    1.38
  -5 -21   2    4.96    2.25
  -5 -21   2    2.23    1.65
   5  21   2    3.79    1.42
  -7  21   2    1.08    2.61
  -7 -21  -2   -1.14    4.14
   7 -21   2    2.73    1.46
   7  21  -2    6.92    1.82
   7  21  -2    2.38    2.01
   7 -21   2    2.42    1.52
  -7  21   2    2.76    1.74
  -7 -21  -2    4.57    2.46
   7 -21   2    2.43    1.85
   7  21   2    2.17    2.21
   7 -21  -2    3.27    1.80
  -7  21  -2    2.71    1.55
   7 -21  -2    3.92    2.21
  -7 -21   2    0.19    3.82
   7  21   2    4.68    1.90
  -7 -21   2    2.84    2.04
   7 -21  -2    2.40    1.64
  -7  21  -2    1.72    1.46
  -7 -21   2    5.16    2.84
   7  21   2    3.80    1.61
  -7  21  -2    2.37    2.57
   0 -22   2  206.28   13.47
   0 -22  -2  239.19   14.01
   0  22  -2  243.66   13.81
   0  22   2  230.95   13.70
   0 -22  -2  236.74   13.85
   0 -22   2  246.69   14.33
   0  22   2  234.31   15.91
   0 -22  -2  241.42   14.39
   0 -22  -2  246.24   13.73
   0 -22   2  237.78   13.62
   0 -22   2  223.20   14.76
   0 -22  -2  226.07   15.98
   0  22  -2  256.42   13.72
   0 -22   2  230.60   13.27
   0  22  -2  240.24   13.78
   0  22   2  231.39   15.50
   0 -22  -2  215.40   15.51
   0  22   2  250.16   13.60
   0  22   2  243.44   13.64
   0  22   2  228.23   16.10
   0 -22   2  234.86   13.38
   0  22  -2  239.02   13.76
   0 -22  -2  227.94   16.13
   0  22   2  235.34   13.60
   0  22  -2  246.46   13.92
   2 -22   2  184.56   11.35
   2  22  -2  189.26   11.37
   2  22  -2  190.31   11.41
  -2  22   2  202.55   11.48
  -2 -22  -2  201.32   14.68
   2 -22   2  162.75   11.06
  -2  22   2  201.03   14.38
  -2  22   2  179.18   13.67
   2  22  -2  199.16   11.20
   2 -22   2  183.90   11.47
  -2  22   2  179.45   11.18
  -2 -22  -2  191.75   11.26
  -2 -22  -2  163.52   13.46
   2  22  -2  178.27   11.22
  -2  22   2  196.76   11.29
  -2  22   2  204.79   11.19
  -2 -22  -2  193.89   12.94
   2 -22   2  169.37   10.86
  -2 -22  -2  165.36   14.04
  -2 -22  -2  186.62   11.42
  -2 -22  -2  204.77   12.77
  -2 -22  -2  215.10   14.25
   2  22  -2  190.42   12.97
   2 -22   2  200.98   11.41
  -2  22   2  181.31   14.46
   2 -22  -2  202.23   14.81
  -2 -22   2  173.98   11.21
   2 -22  -2  182.57   13.73
   2 -22  -2  201.24   11.40
  -2  22  -2  187.99   11.82
   2 -22  -2  184.68   14.16
  -2  22  -2  199.32   11.22
   2 -22  -2  196.20   11.36
   2  22   2  190.88   11.12
   2  22   2  194.47   10.88
   2  22   2  192.55   11.15
  -2 -22   2  177.26   12.75
  -2  22  -2  193.39   11.51
  -2 -22   2  193.94   12.40
   2  22   2  194.31   14.79
   2  22   2  186.47   14.98
  -2  22  -2  188.23   11.17
   2  22   2  190.04   11.26
  -2  22  -2  197.73   11.32
  -2 -22   2  200.46   12.90
  -2 -22   2  193.11   12.52
  -2 -22   2  196.66   11.29
  -2 -22   2  190.45   11.35
   2  22   2  177.37   10.93
  -4 -22  -2   89.18    8.56
  -4  22   2   93.87    6.97
   4  22  -2   98.78    6.75
   4  22  -2  102.08    6.58
  -4 -22  -2  101.82    7.28
  -4  22   2   92.04    6.63
   4  22  -2  104.71    6.52
  -4  22   2   94.23    6.86
  -4  22   2   95.42    6.24
   4 -22   2  103.09    7.10
   4 -22   2   99.55    6.90
  -4 -22  -2   92.58    8.83
   4 -22   2   99.23    6.27
  -4  22   2   99.09    6.98
   4 -22   2  101.66    6.94
   4 -22  -2  103.25    7.26
   4  22   2  106.91    6.80
  -4  22  -2   97.17    6.77
  -4 -22   2   91.02    7.03
   4  22   2   97.19    6.57
   4 -22  -2   96.45    6.59
  -4  22  -2  105.60    6.67
  -4  22  -2   95.76    6.79
  -4 -22   2   88.59    7.02
   4  22   2   98.63    6.23
  -4  22  -2  107.18    6.86
   4  22   2  109.95    6.60
  -4 -22   2  102.81    8.37
   4  22   2  103.42    6.48
   4 -22  -2   98.00    6.74
  -4 -22   2  100.88    8.05
   6 -22   2   40.19    4.19
  -6 -22  -2   30.28    5.35
  -6  22   2   46.02    4.05
   6 -22   2   35.88    3.67
  -6 -22  -2   38.63    4.63
   6  22  -2   43.55    3.86
  -6 -22  -2   37.87    5.42
   6 -22   2   40.26    3.48
   6  22  -2   39.23    4.01
  -6  22   2   43.84    4.66
   6  22  -2   42.73    4.00
   6 -22   2   47.91    4.11
   6 -22  -2   42.36    4.56
   6 -22  -2   47.00    4.04
  -6 -22   2   42.34    6.13
   6  22   2   42.86    4.02
  -6  22  -2   44.22    4.72
  -6  22  -2   47.18    3.88
  -6 -22   2   55.01    5.84
   6  22   2   45.43    3.84
  -6 -22   2   41.15    4.22
   6 -22  -2   40.30    4.32
   6  22   2   53.15    4.57
  -6  22  -2   40.60    3.59
   6 -22  -2   32.23    3.96
  -6 -22   2   41.45    4.71
   6  22   2   35.20    3.87
   6  22   2   45.94    4.18
   1  23  -2   42.27    3.05
   1 -23   2   38.85    2.81
  -1 -23  -2   41.37    3.92
  -1 -23  -2   40.45    2.83
  -1  23   2   37.40    2.79
   1  23  -2   40.16    2.66
   1  23  -2   40.15    2.91
  -1  23   2   27.58    5.31
   1 -23   2   39.16    3.18
  -1  23   2   38.73    3.23
  -1 -23  -2   46.80    6.12
  -1  23   2   41.24    2.83
   1 -23   2   38.84    2.75
  -1 -23  -2   43.47    3.53
  -1 -23  -2   51.30    5.66
  -1 -23  -2   41.41    2.99
   1  23  -2   33.31    2.82
  -1  23   2   44.54    2.83
  -1 -23  -2   35.21    5.39
  -1  23   2   34.13    5.00
  -1  23   2   38.83    2.83
   1  23  -2   42.02    3.62
   1  23  -2   42.11    2.78
   1 -23   2   43.35    3.37
  -1  23   2   38.97    5.34
   1  23   2   41.39    2.74
  -1 -23   2   39.46    4.31
  -1 -23   2   39.88    3.64
   1 -23  -2   36.03    4.99
   1  23   2   43.01    2.76
   1  23   2   37.25    5.09
   1  23   2   39.64    2.60
  -1  23  -2   38.43    2.76
   1  23   2   41.58    6.05
  -1  23  -2   41.85    3.16
  -1 -23   2   43.66    3.70
  -1 -23   2   40.29    2.57
   1 -23  -2   38.82    2.79
   1  23   2   41.44    2.85
  -1  23  -2   39.84    2.89
   1  23   2   34.68    5.12
   1 -23  -2   52.10    6.61
   1 -23  -2   39.86    2.90
  -1 -23   2   40.50    2.69
  -1  23  -2   39.84    3.02
   1 -23  -2   33.50    5.07
  -1 -23   2   39.95    3.47
  -1 -23   2   33.78    2.65
  -1 -23   2   38.65    2.84
   1  23   2   39.58    2.65
  -1  23  -2   42.71    2.87
   1 -23  -2   40.67    3.28
  -3 -23  -2   23.70    4.39
  -3 -23  -2   16.02    3.86
  -3  23   2   24.61    2.58
   3 -23   2   24.19    1.97
   3 -23   2   23.30    2.62
  -3  23   2   22.01    2.62
  -3  23   2   21.80    2.22
  -3  23   2   25.67    2.53
  -3 -23  -2   26.81    2.51
  -3  23   2   24.64    2.03
   3  23  -2   25.21    2.10
   3 -23   2   27.16    2.62
   3  23  -2   26.31    2.52
   3 -23   2   23.99    2.58
   3  23   2   23.55    1.86
  -3 -23   2   25.02    2.64
  -3 -23   2   23.25    3.57
  -3  23  -2   24.85    2.56
   3 -23  -2   22.54    2.19
  -3  23  -2   24.57    2.28
  -3 -23   2   18.57    3.22
   3 -23  -2   24.66    2.63
  -3  23  -2   19.61    2.31
   3  23   2   23.30    1.89
   3  23   2   27.33    2.13
   3  23   2   23.19    2.25
   3  23   2   23.11    2.04
  -3 -23   2   25.83    2.57
  -3  23  -2   26.15    2.21
   5  23  -2    8.73    1.68
  -5  23   2    8.49    2.15
   5 -23   2   11.44    2.30
   5 -23   2   13.68    2.71
   5 -23   2   13.19    2.34
  -5  23   2   14.46    2.36
   5  23  -2    4.71    1.49
  -5 -23  -2   12.31    3.78
  -5  23   2    5.39    2.21
  -5  23   2   10.46    1.69
   5  23  -2   11.94    2.04
  -5 -23  -2   12.50    4.15
   5 -23   2   12.17    1.69
  -5 -23  -2   10.35    2.58
   5  23   2    9.68    1.76
  -5  23  -2   11.69    2.03
  -5  23  -2   10.30    1.81
  -5  23  -2   10.76    2.46
   5  23   2    8.23    1.78
   5 -23  -2    9.86    2.58
  -5 -23   2   20.02    3.65
   5  23   2   11.96    2.41
   5  23   2    8.19    1.67
   5 -23  -2    9.24    2.09
  -5 -23   2    9.77    2.45
   5 -23  -2    8.48    1.78
  -5 -23   2   15.42    3.67
  -5 -23   2    9.10    2.01
   5  23   2    8.61    1.64
   7 -23   2    3.17    1.57
   7  23  -2    3.43    1.90
  -7  23   2    2.64    1.78
   7 -23   2    7.32    2.25
   7 -23   2    4.95    1.80
  -7 -23  -2    4.49    2.68
  -7 -23  -2    3.08    4.20
  -7  23   2   -1.67    2.78
   7  23  -2    4.44    2.13
  -7 -23  -2    8.17    2.64
   7 -23  -2    0.35    2.06
  -7 -23   2    2.66    2.01
   7 -23  -2    8.60    2.59
   7  23   2    4.41    2.69
  -7  23  -2    8.24    3.07
  -7 -23   2    3.13    4.25
  -7 -23   2    2.47    2.93
   7 -23  -2    3.65    1.87
   7  23   2    5.91    2.12
  -7  23  -2    8.03    1.87
  -7  23  -2    4.22    1.56
   7  23   2    4.18    1.88
   0 -24   2    0.61    1.22
   0 -24   2    0.26    0.50
   0  24   2   -7.70    3.14
   0 -24   2    0.41    0.33
   0  24   2    0.44    0.52
   0 -24  -2    0.01    0.72
   0  24   2    1.49    0.51
   0 -24   2    0.36    0.46
   0 -24  -2   -3.90    3.09
   0  24   2    6.60    3.24
   0  24  -2    0.49    0.44
   0 -24  -2    0.34    0.50
   0  24   2   -0.19    0.51
   0  24  -2   -0.39    0.44
   0  24  -2    0.15    0.56
   0 -24  -2    2.05    3.25
   0 -24  -2   -5.92    2.94
   0 -24  -2    1.09    1.16
   0  24  -2    0.66    0.56
   0 -24  -2    0.16    0.48
   0 -24   2   -0.47    1.76
   0  24   2    4.06    3.62
   0  24  -2    0.84    0.64
  -2  24   2    1.60    5.12
   2  24  -2    5.79    3.58
   2 -24   2   -0.15    1.02
  -2 -24  -2   -1.14    1.83
  -2 -24  -2   -0.89    4.63
   2  24  -2   -0.03    0.89
  -2 -24  -2   -7.78    4.10
  -2 -24  -2   -0.01    1.54
  -2  24   2    0.78    1.25
   2  24  -2    1.54    0.73
   2 -24   2    0.85    0.78
  -2 -24  -2    0.72    0.63
   2 -24   2   -0.07    0.82
  -2 -24  -2    0.89    0.66
  -2  24   2    9.89    4.56
  -2  24   2    1.47    0.84
   2  24  -2   -0.12    0.78
   2 -24   2    0.57    0.56
  -2  24   2    2.00    0.91
   2  24  -2    0.12    0.48
  -2  24   2    0.73    0.51
  -2  24   2    0.03    0.65
  -2  24   2    1.46    4.38
  -2 -24   2    0.36    1.34
  -2 -24   2    2.05    2.96
   2 -24  -2   -2.46    3.77
  -2 -24   2   -0.25    0.87
   2  24   2    9.37    4.88
   2 -24  -2    0.01    0.55
   2 -24  -2    0.91    1.05
   2  24   2    0.84    0.48
  -2  24  -2   -0.37    0.63
  -2  24  -2    1.05    0.89
  -2 -24   2    1.84    0.74
  -2 -24   2   -1.08    1.60
   2  24   2    0.30    0.57
   2 -24  -2   -9.41    4.18
  -2 -24   2    0.26    0.65
  -2  24  -2    0.62    0.59
   2  24   2   -0.21    0.46
  -2 -24   2    1.51    2.89
   2 -24  -2   -6.58    3.71
  -2  24  -2    0.55    0.54
  -2  24  -2    0.88    0.68
   2  24   2    0.34    0.54
   2  24   2   -0.43    0.64
   2 -24  -2    0.24    0.59
  -4  24   2    2.71    1.63
   4 -24   2   -1.13    1.46
   4 -24   2   -0.49    0.77
  -4 -24  -2   -1.89    3.05
  -4 -24  -2    2.23    2.84
  -4  24   2    0.10    1.14
   4  24  -2    0.02    1.30
   4  24  -2   -0.39    0.99
   4  24  -2    1.75    0.90
  -4  24   2    0.03    1.62
  -4 -24  -2    1.49    1.32
  -4  24   2    0.04    0.77
   4 -24   2   -0.78    1.38
   4 -24   2    0.05    1.09
  -4  24   2    0.91    1.28
   4 -24  -2    0.25    1.08
   4  24   2    0.25    0.76
  -4 -24   2   -0.53    1.34
  -4  24  -2    2.78    1.02
  -4  24  -2   -2.53    0.97
  -4 -24   2    0.53    2.27
   4 -24  -2    0.16    1.32
   4  24   2    1.10    0.86
  -4  24  -2    1.01    1.26
   4  24   2    0.37    1.12
  -4  24  -2    0.25    0.89
  -4 -24   2    1.74    1.66
  -4 -24   2    2.24    2.12
   4 -24  -2    0.61    0.90
   4  24   2    0.42    0.94
   6  24  -2   -1.95    1.72
   6 -24   2    0.34    1.14
  -6 -24  -2   -1.80    2.44
   6 -24   2   -0.38    1.96
   6 -24   2    2.51    1.84
   6  24  -2   -0.77    1.44
  -6 -24  -2   -0.54    3.04
  -6 -24  -2   -2.60    3.35
  -6  24   2    0.12    1.59
  -6  24   2    1.34    2.59
   6 -24   2   -0.79    1.38
   6  24  -2   -1.08    1.79
  -6  24  -2    1.34    1.36
   6 -24  -2    0.00    2.06
  -6 -24   2    1.16    3.01
   6 -24  -2   -3.52    2.08
   6 -24  -2   -0.79    1.77
   6  24   2   -0.29    1.68
   6  24   2   -3.49    1.36
  -6 -24   2    1.48    3.49
  -6  24  -2    1.16    1.19
  -6  24  -2   -1.79    2.16
  -6 -24   2   -1.48    1.67
   6  24   2    2.53    2.17
   6  24   2    3.62    1.80
  -6 -24   2    3.85    2.42
   6 -24  -2   -2.54    1.48
   6  24   2   -0.26    1.67
  -1 -25  -2   12.64    2.34
   1  25  -2   10.53    1.48
  -1  25   2    9.83    1.12
  -1  25   2    2.35    3.74
   1 -25   2   11.63    1.94
  -1 -25  -2    8.16    3.89
   1  25  -2    8.82    1.05
   1  25  -2   13.98    2.11
  -1  25   2    8.78    1.17
   1 -25   2   10.73    1.43
   1  25  -2   11.08    1.37
  -1 -25  -2   11.79    1.28
   1 -25   2    8.95    1.77
  -1  25   2   10.16    1.28
  -1 -25  -2   10.06    1.37
   1  25  -2    9.47    1.13
  -1 -25  -2    9.94    1.71
  -1  25   2    2.72    3.77
  -1 -25  -2    8.10    3.94
  -1  25   2   10.96    1.30
   1 -25   2    8.17    1.13
  -1  25   2    8.99    4.35
   1  25  -2   11.62    1.43
  -1 -25  -2    8.77    4.12
   1 -25  -2   11.51    1.23
  -1 -25   2    9.23    2.04
  -1 -25   2    8.75    1.98
   1 -25  -2   14.69    4.82
  -1  25  -2   10.86    1.60
  -1  25  -2   10.11    1.35
   1 -25  -2    1.32    3.57
   1  25   2    4.28    4.65
   1  25   2   10.51    1.25
  -1 -25   2    8.40    2.72
   1  25   2    8.45    1.11
  -1 -25   2   10.75    1.30
  -1 -25   2   12.60    2.00
   1 -25  -2   13.33    1.94
  -1  25  -2    9.00    1.28
  -1 -25   2   10.28    1.00
  -1 -25   2    8.88    1.12
   1  25   2   10.89    1.14
   1  25   2   15.72    4.46
   1 -25  -2    7.12    3.63
   1  25   2    3.26    3.93
  -1  25  -2   10.93    1.35
  -1 -25   2   11.27    1.14
   1 -25  -2   10.08    1.20
  -1  25  -2   11.55    1.14
   1  25   2    8.75    1.08
  -3  25   2    7.64    1.52
  -3  25   2    6.66    1.07
   3 -25   2    8.68    1.07
  -3  25   2    7.06    1.50
  -3 -25  -2   11.65    3.44
  -3  25   2    5.37    1.82
  -3  25   2    6.19    1.26
   3 -25   2    7.59    1.50
   3 -25   2    7.02    1.58
   3  25  -2    7.56    1.47
  -3 -25  -2    2.39    3.04
  -3 -25  -2    8.29    1.53
   3  25  -2    5.20    1.01
  -3  25   2    8.30    1.58
   3 -25  -2    6.87    1.36
  -3  25  -2    6.85    1.23
   3  25   2    6.43    1.21
  -3 -25   2    7.15    2.35
   3  25   2    6.89    1.15
   3 -25  -2    7.12    1.71
  -3 -25   2    9.24    2.53
  -3  25  -2    6.46    1.29
  -3 -25   2    8.45    1.46
   3  25   2    7.08    1.02
  -3  25  -2    5.99    1.52
  -3 -25   2    7.02    1.81
  -3  25  -2    9.71    1.58
   3  25   2    6.44    1.12
   5  25  -2    5.11    1.48
   5  25  -2    3.68    1.65
  -5 -25  -2    3.65    3.37
  -5 -25  -2    5.13    3.40
  -5  25   2    4.68    1.76
   5 -25   2    2.90    1.77
  -5  25   2    5.54    1.43
   5 -25   2    6.20    2.19
  -5 -25  -2    3.58    2.22
   5 -25   2    2.61    1.53
  -5  25   2    7.09    2.52
   5 -25   2    5.10    1.37
  -5  25  -2    5.52    1.60
  -5 -25   2    0.54    2.24
  -5  25  -2    2.84    1.34
  -5 -25   2    3.82    3.01
  -5 -25   2    5.91    2.97
   5 -25  -2    1.32    1.97
   5  25   2    3.28    1.51
   5 -25  -2    2.22    1.83
  -5 -25   2    1.67    1.89
   5  25   2    1.52    1.40
   5  25   2    5.59    2.22
  -5  25  -2    4.92    2.01
   5 -25  -2    7.31    1.78
   5  25   2    2.64    1.47
   7 -25   2   -0.42    1.51
  -7 -25  -2    1.03    2.69
   7 -25   2    2.92    2.09
  -7  25   2    0.12    1.75
   7 -25   2    3.02    1.62
   7  25  -2   -0.72    1.80
  -7 -25  -2    0.85    2.60
  -7 -25  -2   -6.98    4.21
   7  25   2    3.07    2.70
   7  25   2   -1.67    1.77
  -7 -25   2    1.16    2.09
  -7 -25   2    1.91    4.30
  -7 -25   2   -1.77    3.64
  -7  25  -2   -0.24    1.38
   7 -25  -2   -2.91    1.96
   7 -25  -2    1.45    1.57
  -7  25  -2   -3.08    1.48
   7 -25  -2    2.90    2.48
   0 -26   2    0.66    1.77
   0  26  -2    0.71    0.53
   0 -26  -2    1.03    0.59
   0 -26  -2    0.79    0.59
   0  26   2    0.01    3.66
   0 -26  -2    1.48    0.89
   0  26   2    0.68    0.63
   0 -26  -2   -4.88    3.33
   0  26   2    2.55    0.64
   0 -26   2    1.50    0.37
   0  26   2    1.57    0.64
   0 -26   2    0.76    0.55
   0 -26   2    1.29    1.56
   0 -26  -2    2.93    3.54
   0  26   2    1.44    0.54
   0  26  -2    1.91    0.74
   0  26  -2    1.52    0.68
   0 -26  -2   -3.80    3.93
   0  26   2   -4.39    3.68
   0 -26   2    0.79    0.37
   0 -26  -2    0.36    1.21
   0  26   2    0.19    4.57
   0  26  -2    1.78    0.65
   0  26  -2    0.84    0.76
   2  26  -2   -0.91    3.83
  -2  26   2   -0.89    0.91
  -2  26   2    1.36    0.68
  -2 -26  -2    0.72    1.97
   2  26  -2   -0.09    0.83
   2  26  -2   -0.15    0.97
  -2 -26  -2    0.80    1.71
  -2  26   2    0.07    0.54
  -2 -26  -2    0.12    0.62
   2 -26   2    0.41    0.96
   2  26  -2   -0.28    0.43
   2 -26   2    0.47    1.32
   2 -26   2    1.13    0.61
  -2  26   2   -0.85    0.79
  -2 -26  -2    1.41    0.71
   2  26  -2    0.32    0.79
   2 -26   2   -2.00    0.81
  -2  26  -2    1.41    0.75
  -2  26  -2    0.68    0.82
  -2  26  -2    1.13    0.68
  -2  26  -2    1.19    0.62
   2 -26  -2    1.87    0.77
   2  26   2    1.19    0.62
  -2 -26   2   -0.17    1.18
   2  26   2    0.83    0.51
  -2 -26   2   -3.56    3.28
  -2 -26   2    0.56    0.71
  -2  26  -2    0.41    0.95
  -2 -26   2    1.54    0.68
   2 -26  -2    0.83    1.14
  -2 -26   2   -0.36    1.53
  -2 -26   2    1.51    2.09
   2 -26  -2   -0.22    0.60
   2  26   2    1.00    0.58
   2  26   2    0.42    0.72
  -2 -26   2   -2.30    3.35
   2  26   2   -0.21    0.64
   4  26  -2    1.61    0.88
   4 -26   2    0.81    1.26
  -4  26   2    1.26    1.19
  -4  26   2   -2.42    1.96
   4 -26   2   -0.91    0.83
   4 -26   2    2.04    1.61
   4 -26   2    0.56    1.54
  -4  26   2    0.88    0.90
   4  26  -2    0.81    1.35
  -4  26   2    2.49    1.70
  -4 -26  -2   -4.21    2.81
  -4 -26  -2   -0.04    1.26
  -4 -26  -2    3.30    3.12
   4 -26  -2    0.06    1.16
   4  26   2    0.21    0.99
  -4 -26   2    4.65    1.94
  -4 -26   2    0.62    2.46
  -4 -26   2    0.80    1.54
  -4  26  -2   -1.80    1.29
   4 -26  -2    0.59    0.98
  -4  26  -2   -0.14    1.00
   4  26   2    0.29    1.29
  -4  26  -2    0.11    0.99
  -4  26  -2   -0.13    0.98
  -4 -26   2   -2.14    1.99
   4  26   2   -0.79    0.90
   4 -26  -2    0.17    1.43
   4  26   2    0.64    0.93
   6  26  -2    2.67    1.71
  -6 -26  -2    1.09    2.58
   6 -26   2    2.28    1.52
  -6  26   2    0.35    1.61
  -6 -26  -2   -0.72    3.27
   6 -26   2    4.36    2.27
   6 -26   2    2.06    1.30
   6  26  -2   -1.38    2.45
  -6 -26   2    6.24    2.77
  -6  26  -2   -1.96    1.32
   6 -26  -2   -2.92    2.22
  -6 -26   2   -1.50    3.23
   6  26   2   -0.24    2.47
  -6  26  -2    1.56    2.63
   6  26   2   -0.87    1.56
   6 -26  -2   -0.51    1.90
  -6  26  -2    0.84    1.21
   6 -26  -2   -2.16    2.65
   6 -26  -2   -1.41    1.64
  -6 -26   2    0.99    1.89
  -1 -27  -2    3.32    0.88
  -1 -27  -2    4.42    0.97
   1  27  -2    3.59    1.06
  -1  27   2    2.35    0.75
  -1 -27  -2    1.75    1.25
   1  27  -2    4.00    1.04
   1 -27   2    4.19    1.54
  -1  27   2    4.09    0.90
  -1 -27  -2    4.36    1.77
   1 -27   2    4.99    0.88
   1  27  -2    3.81    0.92
   1  27  -2    3.73    0.72
  -1  27   2    4.75    1.00
   1 -27   2    4.06    1.68
   1  27  -2    2.70    0.69
  -1  27   2    3.45    0.88
  -1 -27   2    4.58    2.00
   1  27   2    3.86    0.72
   1 -27  -2    1.83    1.42
  -1  27  -2    3.27    0.88
  -1 -27   2    3.89    0.63
  -1  27  -2    5.01    1.18
  -1 -27   2    3.75    0.92
   1 -27  -2    2.47    0.67
   1  27   2    2.05    0.81
   1 -27  -2    4.33    0.94
   1  27   2    3.70    0.75
  -1  27  -2    4.33    1.04
   1  27   2    3.58    0.79
  -1  27  -2    2.24    0.81
  -1 -27   2    6.16    2.48
  -1 -27   2    2.49    0.75
  -1  27  -2    3.63    0.76
   3  27  -2    0.42    1.22
  -3  27   2    2.32    1.54
  -3 -27  -2    2.94    1.24
  -3 -27  -2    4.04    3.05
  -3  27   2    2.86    0.84
   3 -27   2    0.96    0.80
   3 -27   2    3.17    1.29
  -3  27   2    1.96    1.32
  -3  27   2    2.56    1.12
   3  27  -2    1.81    0.81
  -3  27   2    3.07    1.31
   3 -27   2    1.50    1.35
  -3 -27  -2   -0.37    2.93
   3  27   2    3.79    1.15
  -3  27  -2    2.24    1.17
   3  27   2    3.20    0.98
  -3 -27   2    0.29    1.74
  -3  27  -2    2.93    1.14
  -3 -27   2    5.43    2.53
  -3 -27   2    2.59    2.31
  -3  27  -2    3.11    1.06
  -3 -27   2    1.15    1.12
  -3  27  -2    1.48    0.97
   3 -27  -2    2.85    1.35
   3  27   2    1.94    0.83
   3 -27  -2    1.94    1.00
   3  27   2    2.11    0.82
   5 -27   2    1.89    1.18
   5  27  -2    1.23    1.28
  -5  27   2    2.09    1.51
   5 -27   2    2.84    1.93
  -5 -27  -2   -0.75    3.53
   5 -27   2    3.40    1.67
  -5 -27  -2    3.17    3.14
  -5  27   2   -0.35    1.36
  -5 -27  -2   -3.49    2.08
   5  27  -2    1.28    1.72
   5 -27   2    1.58    2.06
   5 -27  -2    5.08    2.00
  -5 -27   2   -0.45    1.74
   5  27   2   -0.12    1.35
   5 -27  -2    1.56    1.37
  -5  27  -2    0.09    1.10
  -5 -27   2    6.37    3.37
  -5  27  -2    2.34    1.47
   5 -27  -2    0.67    2.07
   5  27   2   -0.27    1.93
   5  27   2    1.61    1.50
  -5  27  -2   -1.34    2.01
   5  27   2   -2.84    1.38
  -5 -27   2    4.11    2.36
  -5 -27   2   -1.54    2.49
   0  28  -2    0.88    0.65
   0 -28   2    0.78    0.39
   0 -28   2   -3.03    1.88
   0 -28  -2   -0.47    0.56
   0  28  -2    0.50    0.68
   0  28   2    0.50    0.69
   0  28   2    0.66    0.59
   0 -28  -2    0.00    0.96
   0  28  -2    0.67    0.63
   0 -28  -2    0.73    0.62
   0 -28   2    2.11    0.63
   0  28  -2    1.30    0.62
   0 -28  -2    1.04    1.53
   0  28   2    1.62    0.63
   0  28   2    0.54    0.85
   0  28  -2    3.39    0.97
   0 -28   2    0.34    1.99
   2 -28   2   -0.19    1.09
  -2 -28  -2   -0.40    1.97
  -2 -28  -2    0.37    1.87
  -2 -28  -2    0.01    0.76
  -2  28   2    1.88    0.74
   2  28  -2    1.01    0.57
  -2  28   2   -0.53    1.11
  -2  28   2    2.03    1.03
  -2  28   2   -0.41    0.83
   2  28  -2    1.30    0.97
   2  28  -2    0.41    0.99
  -2 -28  -2    1.13    0.81
   2  28  -2    0.37    1.15
  -2  28   2    0.61    0.95
   2 -28   2    0.96    1.00
   2 -28  -2    1.37    1.42
   2 -28  -2    1.12    0.75
  -2  28  -2    1.34    1.05
   2 -28  -2    1.50    0.69
  -2 -28   2    1.09    2.22
   2  28   2    0.82    0.88
   2  28   2    1.19    0.60
  -2 -28   2    0.05    2.51
  -2  28  -2    0.80    0.74
  -2 -28   2    0.17    0.85
   2  28   2    0.16    0.63
   2  28   2    1.19    0.67
  -2  28  -2    1.93    1.00
  -2  28  -2    1.61    0.69
  -2 -28   2    1.52    0.72
  -2  28  -2    1.13    0.87
   4 -28   2    3.56    1.70
  -4 -28  -2    1.94    1.65
  -4  28   2    2.37    0.99
   4  28  -2   -0.09    1.54
   4 -28   2    0.01    0.94
  -4 -28  -2   -0.77    3.59
   4 -28   2    0.86    1.64
  -4  28   2    3.24    1.59
   4 -28   2    3.63    1.63
   4  28  -2    2.05    1.05
  -4 -28  -2    2.46    3.37
  -4 -28   2   -0.96    1.40
   4  28   2    0.21    1.10
  -4 -28   2    2.41    2.81
   4 -28  -2    2.97    1.60
   4 -28  -2   -0.31    0.99
  -4  28  -2    1.59    1.59
   4 -28  -2   -2.38    1.21
  -4  28  -2    1.55    1.24
   4  28   2    2.13    1.12
  -4  28  -2    1.97    1.22
  -4 -28   2    3.63    2.93
   4  28   2   -1.76    1.35
   4  28   2    0.85    1.13
  -4  28  -2    2.39    1.37
   6 -28   2    2.77    2.23
  -6  28   2    3.03    1.68
  -6 -28  -2   -0.14    2.64
  -6 -28  -2    0.10    3.62
   6 -28   2    3.28    1.42
   6  28  -2    1.77    1.76
   6 -28   2    0.88    1.58
   6 -28  -2    3.33    1.78
   6  28   2    0.83    1.76
  -6 -28   2   -0.20    3.51
  -6  28  -2    3.05    1.62
  -6 -28   2   -1.08    2.01
  -6  28  -2   -0.86    1.29
   6 -28  -2   -0.47    2.49
   6 -28  -2    1.14    2.02
   6  28   2    2.55    2.85
  -1  29   2    5.61    1.14
  -1  29   2    7.23    1.32
   1  29  -2    4.78    1.24
   1 -29   2    6.53    1.86
  -1 -29  -2    3.86    1.00
   1  29  -2    5.07    1.24
   1  29  -2    6.36    0.97
  -1  29   2    6.74    1.15
  -1 -29  -2    7.63    1.85
  -1  29   2    5.11    0.94
   1  29  -2    6.98    1.24
  -1 -29  -2    8.80    2.42
   1  29  -2    5.55    0.96
  -1 -29  -2    6.20    1.16
   1 -29   2    7.08    1.03
   1 -29  -2    6.06    1.07
   1 -29  -2    5.03    0.99
  -1  29  -2    6.64    1.06
  -1 -29   2    7.24    1.27
  -1 -29   2    8.84    2.91
   1  29   2    6.30    0.98
  -1  29  -2    6.77    1.13
  -1 -29   2    4.69    0.92
  -1  29  -2    5.66    1.22
   1  29   2    6.32    1.14
   1  29   2    5.30    1.11
  -1 -29   2    5.93    2.88
  -1 -29   2    4.44    0.77
  -1  29  -2    7.76    1.24
   1  29   2    5.87    0.97
   1 -29  -2    8.79    1.82
  -1  29  -2    5.94    1.24
   3 -29   2    4.91    1.73
  -3  29   2    4.36    1.89
  -3 -29  -2    8.74    3.60
  -3  29   2    5.15    1.54
  -3 -29  -2    3.12    2.84
   3 -29   2    4.93    0.93
   3  29  -2    5.33    1.46
   3  29  -2    6.14    1.09
   3 -29   2    3.06    1.69
  -3  29   2    5.12    1.06
  -3  29   2    6.79    1.76
  -3 -29  -2    3.21    1.24
   3  29   2    3.40    0.98
  -3 -29   2    6.18    3.06
   3 -29  -2    6.22    1.71
  -3  29  -2    3.56    1.35
  -3 -29   2    4.74    2.86
  -3 -29   2    5.75    1.39
   3  29   2    4.91    1.03
   3  29   2    3.00    1.30
  -3  29  -2    7.07    1.46
   3  29   2    6.00    1.32
   3 -29  -2    4.82    1.18
  -3  29  -2    4.42    1.15
   3 -29  -2    6.17    1.20
  -3  29  -2    3.38    1.45
  -5  29   2    1.38    1.51
   5 -29   2    5.76    2.33
   5 -29   2    3.90    1.37
  -5  29   2    5.90    2.00
   5 -29   2    2.90    2.18
   5 -29   2    2.69    1.74
  -5 -29  -2    3.25    3.34
   5  29  -2    1.05    1.83
   5  29  -2    4.05    1.52
  -5 -29  -2   -0.23    2.22
  -5 -29  -2    9.27    4.33
  -5 -29   2   -4.64    3.34
  -5  29  -2    1.45    2.50
   5  29   2    1.51    1.73
   5 -29  -2    7.40    2.19
  -5 -29   2   -1.63    1.93
   5  29   2   -1.51    2.06
  -5  29  -2    2.35    1.55
   5 -29  -2    2.74    2.37
  -5 -29   2    1.11    2.84
   5 -29  -2    2.59    1.68
   5  29   2    3.22    1.75
  -5  29  -2    2.61    1.25
   5  29   2    2.42    1.50
   0 -30   2    2.23    0.85
   0  30   2    1.95    0.70
   0  30   2    3.74    1.16
   0 -30   2    3.57    1.99
   0  30   2    1.67    0.92
   0  30  -2    1.68    0.66
   0 -30  -2    1.68    1.17
   0 -30   2    1.96    0.73
   0 -30   2   -3.49    2.30
   0  30  -2    1.14    0.79
   0  30  -2    1.86    0.90
   0 -30  -2    1.06    0.72
   0  30   2    1.79    0.81
   0  30  -2    2.29    1.05
   0 -30  -2    2.95    0.87
   0  30  -2    1.39    0.88
   0 -30  -2    0.65    1.61
  -2 -30  -2    2.71    0.96
  -2  30   2    2.04    1.24
  -2 -30  -2    0.68    0.82
   2 -30   2    1.21    1.21
  -2  30   2    2.37    0.84
   2 -30   2    0.91    1.19
  -2 -30  -2    3.70    1.99
   2  30  -2    2.27    1.28
  -2 -30  -2    4.78    2.81
   2  30  -2    0.78    0.65
   2 -30   2    3.26    1.10
  -2  30   2    1.44    1.51
   2  30  -2    0.65    1.03
  -2  30   2    2.80    1.20
  -2 -30   2    0.86    1.02
  -2 -30   2    1.70    0.75
   2  30   2    1.69    0.77
  -2  30  -2    1.18    1.01
  -2 -30   2    0.10    3.01
   2  30   2    1.14    0.63
   2 -30  -2    3.12    0.84
  -2 -30   2   -1.18    2.57
   2  30   2    2.31    1.88
   2 -30  -2    1.70    0.85
  -2  30  -2    1.52    1.17
  -2  30  -2    1.48    0.90
   2  30   2    1.67    0.79
  -2  30  -2    1.86    0.96
   2  30   2    4.07    1.09
   2 -30  -2    2.20    1.53
  -2  30  -2    1.87    0.81
   4 -30   2    3.87    1.90
   4 -30   2   -0.79    1.57
  -4 -30  -2    0.55    1.61
  -4  30   2    0.91    1.04
   4  30  -2    0.68    1.08
   4 -30   2    0.00    1.76
   4  30  -2    1.56    1.70
  -4 -30  -2    2.95    3.78
  -4 -30  -2   -4.37    3.73
   4 -30   2   -0.55    1.00
  -4  30   2    0.03    1.44
  -4 -30   2   -0.14    2.67
  -4  30  -2    1.25    1.40
   4 -30  -2    1.24    1.83
   4  30   2    1.86    1.19
   4  30   2   -2.75    1.58
  -4 -30   2    0.13    2.95
   4 -30  -2    0.02    1.51
   4 -30  -2    3.04    1.24
  -4  30  -2   -0.32    1.14
   4  30   2    1.63    1.20
  -4  30  -2    1.14    1.26
   4  30   2    1.19    1.27
  -4 -30   2   -2.04    1.62
  -4  30  -2    1.20    1.94
   6 -30   2    2.49    2.49
   6 -30   2   -2.76    1.66
   6 -30   2    1.64    1.49
  -6 -30  -2    3.27    3.74
  -6  30   2    4.39    1.85
  -6 -30  -2    0.20    2.97
   6  30  -2   -1.44    1.74
   6 -30  -2    0.66    1.90
   6 -30  -2    3.83    2.73
  -6 -30   2    1.42    2.20
   6  30   2   -3.61    1.79
   6  30   2    1.57    3.21
  -6 -30   2    4.91    3.87
  -6  30  -2   -1.02    1.32
  -6  30  -2    3.07    1.63
   6 -30  -2    3.51    2.28
   1  31  -2   16.16    2.07
  -1 -31  -2   18.89    2.50
   1  31  -2   17.61    1.70
   1  31  -2   16.66    2.12
  -1  31   2   15.91    2.48
   1 -31   2   19.01    1.96
  -1  31   2   17.28    1.84
   1  31  -2   20.91    2.08
  -1 -31  -2   23.62    3.35
  -1  31   2   15.71    1.98
   1 -31   2   20.08    2.67
   1  31  -2   18.76    1.79
  -1  31   2   20.85    2.31
  -1 -31  -2   19.29    1.92
  -1 -31  -2   18.07    1.99
  -1  31   2   20.48    1.93
  -1 -31   2   22.19    4.05
  -1 -31   2   18.96    1.50
   1 -31  -2   18.18    1.79
   1  31   2   14.28    2.51
  -1  31  -2   19.38    2.10
   1 -31  -2   17.62    1.90
  -1 -31   2   16.46    1.92
   1 -31  -2   22.34    2.84
  -1  31  -2   15.71    2.13
  -1  31  -2   17.91    2.13
  -1 -31   2   14.77    3.85
  -1  31  -2   16.89    1.77
   1  31   2   16.53    2.00
   1  31   2   15.80    1.64
   1  31   2   15.65    1.88
  -1 -31   2   19.15    1.75
  -1  31  -2   17.65    2.07
  -3  31   2   11.70    2.54
  -3  31   2   14.99    2.23
  -3  31   2   12.35    1.62
   3 -31   2    8.99    1.38
   3 -31   2   13.30    2.34
  -3 -31  -2   10.73    1.88
  -3 -31  -2    9.55    3.98
  -3 -31  -2    9.84    3.51
   3  31  -2   11.76    1.58
   3  31  -2   11.60    2.06
  -3  31   2   10.59    2.21
   3 -31   2    9.95    2.13
  -3  31  -2   13.84    1.84
   3 -31  -2   14.93    1.99
   3  31   2   11.27    1.68
   3  31   2   12.13    1.50
  -3  31  -2   13.87    2.28
  -3  31  -2   14.19    2.16
  -3 -31   2   15.86    4.03
  -3 -31   2    9.79    1.59
   3  31   2   10.30    1.76
   3  31   2    7.59    1.41
  -3  31  -2   15.06    2.26
   3 -31  -2   12.26    2.27
  -3 -31   2   10.91    3.82
   3 -31  -2   11.92    1.80
   5  31  -2    7.03    1.70
   5  31  -2    7.52    2.17
   5 -31   2    8.83    2.65
  -5 -31  -2    3.35    4.37
  -5  31   2    6.42    2.11
   5 -31   2    8.21    1.58
  -5 -31  -2    9.76    4.06
  -5  31   2    4.47    1.79
   5 -31   2    3.61    2.24
   5 -31   2    5.18    2.00
  -5 -31  -2   11.09    2.47
   5 -31  -2    5.09    2.40
  -5 -31   2    4.27    3.34
   5  31   2    4.60    2.01
   5 -31  -2    3.92    1.67
  -5  31  -2    6.37    1.51
  -5 -31   2    7.24    2.20
   5  31   2    5.97    1.75
   5  31   2    1.12    2.64
  -5 -31   2    6.92    4.09
   5 -31  -2    4.79    2.48
  -5  31  -2    4.19    1.77
   0 -32   2  111.35    7.09
   0 -32  -2   87.68    6.85
   0  32  -2  115.19    7.09
   0 -32  -2  116.94    7.03
   0 -32   2  101.56    7.89
   0 -32  -2  110.51    7.73
   0  32  -2  117.49    6.95
   0  32   2   97.42    6.78
   0  32   2  107.16    6.98
   0 -32   2  112.25    6.83
   0 -32  -2  110.88    7.08
   0  32  -2  108.88    6.96
   0  32   2  114.99    6.86
   0  32  -2  111.51    6.92
   0  32   2  103.90    7.52
   0  32   2  110.02    7.08
   0  32  -2  111.69    7.21
  -2  32   2   95.56    5.96
   2  32  -2   95.16    5.96
  -2 -32  -2   96.22    6.10
   2  32  -2   83.15    6.17
  -2  32   2   87.03    6.42
   2 -32   2   95.56    6.46
   2  32  -2   93.16    6.26
  -2 -32  -2   95.30    6.24
  -2 -32  -2   91.99    7.43
   2 -32   2   81.89    5.93
  -2 -32  -2   80.24    7.89
   2 -32   2   95.99    6.19
  -2  32   2   94.48    6.15
  -2  32  -2   92.24    6.68
  -2 -32   2   75.37    8.31
   2  32   2   81.87    5.64
  -2  32  -2   85.26    5.94
  -2 -32   2   89.87    5.70
  -2 -32   2   94.13    6.22
  -2  32  -2   93.29    5.97
   2 -32  -2   87.88    5.95
  -2  32  -2   90.62    6.05
   2  32   2   80.27    5.89
  -2  32  -2   92.13    6.29
   2 -32  -2   76.56    6.24
   2 -32  -2   92.86    6.08
   2  32   2   91.87    5.85
  -2 -32   2   90.43    8.75
   4  32  -2   51.41    4.58
   4 -32   2   51.10    4.79
   4 -32   2   48.48    4.76
   4 -32   2   44.21    4.94
  -4 -32  -2   50.01    4.73
  -4 -32  -2   38.54    6.92
  -4  32   2   51.90    3.91
   4 -32   2   39.15    3.57
   4  32  -2   51.99    4.03
  -4 -32  -2   33.08    6.19
  -4  32   2   45.86    4.58
  -4 -32   2   53.44    6.58
   4 -32  -2   54.75    5.08
  -4  32  -2   54.65    4.38
  -4 -32   2   48.24    4.39
   4 -32  -2   44.32    4.09
   4 -32  -2   50.99    4.39
  -4  32  -2   51.70    4.42
   4  32   2   52.69    4.06
  -4  32  -2   52.25    4.30
   4  32   2   52.32    4.07
  -4 -32   2   65.29    6.61
   4  32   2   50.91    3.95
   4  32   2   53.55    4.55
   6  32  -2   24.84    3.35
  -6 -32  -2   21.29    4.05
  -6 -32  -2   22.45    5.00
  -6  32   2   25.38    3.25
   6 -32   2   23.92    3.26
   6 -32   2   22.34    3.88
   6 -32  -2   18.34    3.42
  -6  32  -2   27.61    3.16
  -6 -32   2   30.15    3.73
  -6  32  -2   25.20    2.94
   6 -32  -2   19.67    3.80
   6 -32  -2   17.99    3.28
  -6 -32   2   20.57    4.72
   6  32   2   22.93    3.14
  -1  33   2    6.25    1.17
   1  33  -2    4.35    1.29
   1  33  -2    5.25    1.15
  -1  33   2    5.46    1.23
  -1 -33  -2    3.44    1.01
  -1  33   2    6.33    2.15
   1  33  -2    4.59    1.06
  -1 -33  -2    4.96    1.81
  -1  33   2    3.72    1.59
  -1 -33  -2    4.80    1.20
   1 -33   2    7.79    1.37
   1  33  -2    4.43    1.33
   1  33  -2    6.83    1.65
  -1 -33  -2   12.28    2.86
   1 -33  -2    8.43    2.09
  -1  33  -2    7.41    1.64
  -1 -33   2    3.89    3.10
   1  33   2    4.71    1.89
  -1 -33   2    7.74    3.74
  -1 -33   2    6.00    0.89
   1 -33  -2    3.84    1.01
   1  33   2    4.57    1.01
   1  33   2    6.53    1.50
  -1  33  -2    6.10    1.16
  -1 -33   2    6.03    1.17
  -1 -33   2    3.72    1.23
  -1  33  -2    5.89    1.21
   1 -33  -2    6.28    1.17
   1  33   2    5.92    1.16
  -1  33  -2    5.66    1.28
  -1  33  -2    4.75    1.42
   3 -33   2   -1.06    1.60
  -3 -33  -2    4.49    3.71
  -3  33   2    3.53    1.63
  -3  33   2    3.07    1.59
  -3  33   2    3.93    1.09
   3  33  -2    3.66    1.11
  -3 -33  -2    1.46    3.49
   3 -33   2    1.21    1.77
  -3 -33  -2    2.80    1.60
   3 -33   2    2.91    1.80
   3  33  -2    5.93    1.75
   3  33   2    3.40    1.23
   3  33   2    3.05    1.01
  -3  33  -2    2.52    1.58
   3 -33  -2    3.74    1.63
   3 -33  -2    2.18    1.07
  -3 -33   2    4.22    3.53
  -3  33  -2    3.85    1.39
  -3  33  -2    6.28    1.42
  -3 -33   2    4.95    1.24
   3 -33  -2    4.81    1.40
   3  33   2    1.86    1.13
   3  33   2    3.50    1.68
  -3 -33   2    2.20    3.48
   5 -33   2    3.22    2.04
  -5 -33  -2    1.25    3.96
  -5  33   2    2.10    1.71
  -5 -33  -2    5.73    2.57
   5  33  -2    5.15    2.89
   5  33  -2    3.62    1.70
  -5  33   2    2.14    1.79
   5 -33   2    5.74    2.59
  -5 -33   2    0.44    2.26
   5 -33  -2    0.69    2.63
  -5 -33   2    2.46    3.46
  -5  33  -2    4.74    1.67
   5 -33  -2   -0.60    1.55
   5  33   2    2.42    1.96
   5  33   2    5.26    1.84
  -5  33  -2    2.84    1.62
   0  34   2    0.77    0.84
   0 -34   2    1.73    2.59
   0  34  -2    1.59    1.05
   0  34  -2    2.66    1.08
   0  34  -2    2.73    0.89
   0  34  -2    1.05    1.07
   0 -34  -2    0.80    0.91
   0 -34  -2    2.80    0.99
   0 -34   2    0.60    0.89
   0 -34  -2    3.39    1.94
   0 -34   2   -0.02    0.91
   0  34   2    2.51    1.71
   0  34   2    3.06    0.94
   0  34  -2    2.83    1.38
  -2  34   2    2.02    0.87
  -2 -34  -2    2.34    2.38
  -2 -34  -2    2.00    1.06
   2  34  -2   -0.55    1.57
  -2  34   2   -3.16    2.24
   2  34  -2    0.52    1.18
   2  34  -2    0.52    0.84
   2 -34   2   -0.38    1.23
  -2  34   2    0.98    1.20
  -2 -34  -2    1.01    1.04
  -2 -34  -2   -1.58    3.00
  -2  34   2    1.18    1.39
   2 -34   2    2.64    1.47
  -2 -34   2   -1.66    3.85
  -2 -34   2    1.01    0.91
   2  34   2    1.21    0.91
  -2  34  -2   -0.43    1.48
   2 -34  -2    2.58    1.02
  -2 -34   2    1.92    3.72
   2  34   2    0.05    0.93
   2  34   2    0.55    1.03
  -2  34  -2    2.64    1.00
   2 -34  -2    2.15    0.96
  -2  34  -2    0.90    1.45
  -2 -34   2    0.05    1.06
  -2  34  -2    2.00    1.21
   4 -34   2   -3.69    2.09
  -4 -34  -2    1.15    3.95
  -4  34   2    1.29    1.23
  -4 -34  -2   -2.56    1.66
   4 -34   2    2.18    2.25
   4  34  -2    0.15    1.91
  -4  34   2   -0.35    1.54
  -4 -34  -2    2.53    4.67
   4 -34   2    2.16    1.91
   4  34  -2   -0.21    1.19
  -4 -34   2    2.98    1.77
  -4  34  -2    2.20    1.54
   4  34   2   -1.18    1.51
   4  34   2   -1.13    1.45
  -4 -34   2    2.78    4.07
   4  34   2   -0.83    1.22
  -4  34  -2    0.82    1.42
   4 -34  -2    1.72    1.26
  -4 -34   2    4.33    3.45
   4 -34  -2    1.29    1.74
  -4  34  -2    3.05    1.50
   4 -34  -2    1.42    2.12
   4  34   2   -2.00    1.48
   4 -34  -2   -1.09    1.59
   6  34  -2   -0.31    1.96
   6 -34   2    2.76    2.81
  -6  34   2    1.29    1.87
  -6 -34  -2    0.00    4.24
   6 -34   2   -0.15    1.97
  -6 -34  -2    2.33    3.19
   6 -34  -2   -2.09    2.43
  -6 -34   2   -1.13    2.64
   6  34   2    0.67    2.12
  -6  34  -2   -0.37    1.76
   6 -34  -2   -1.83    2.98
  -6  34  -2   -0.63    1.51
  -6 -34   2   -1.30    4.14
   6 -34  -2   -1.21    1.97
   6 -34  -2    0.88    3.22
  -1 -35  -2    5.53    1.35
   1  35  -2    8.80    1.86
   1  35  -2    8.92    1.58
  -1 -35  -2    6.76    2.09
  -1  35   2    6.45    1.29
   1 -35   2    7.56    1.46
   1  35  -2    7.97    1.37
  -1  35   2    7.03    1.48
   1  35  -2   11.54    1.85
  -1  35   2    9.01    2.08
  -1 -35  -2   10.10    1.72
  -1 -35  -2    8.03    2.87
   1  35   2    9.57    1.37
  -1  35  -2    9.50    1.80
  -1 -35   2    0.41    4.05
   1 -35  -2    6.72    1.33
  -1 -35   2    9.69    3.51
  -1  35  -2    9.76    1.78
  -1  35  -2    9.19    1.49
   1  35   2   20.86    2.82
   1 -35  -2   10.58    1.59
  -1  35  -2    8.21    1.61
   1  35   2    8.69    1.48
  -1  35  -2    7.35    1.79
  -1 -35   2    8.73    1.75
   1 -35  -2    7.84    2.20
  -1 -35   2   12.24    1.36
  -3 -35  -2    6.09    1.66
  -3  35   2    6.45    1.32
  -3  35   2    4.20    1.77
   3  35  -2    4.88    1.86
  -3 -35  -2    6.65    4.03
   3 -35   2    5.67    2.05
   3 -35   2    2.52    1.94
   3  35  -2    5.66    1.41
  -3  35   2    5.92    2.04
  -3 -35  -2   -1.38    3.77
   3  35   2    5.02    1.61
  -3  35  -2    5.40    1.65
  -3 -35   2    8.81    4.33
  -3  35  -2    8.70    1.62
   3 -35  -2    5.12    2.10
   3 -35  -2    7.32    1.53
   3  35   2    6.57    1.40
   3 -35  -2    5.91    1.56
   3  35   2    5.61    1.41
  -3 -35   2    3.66    1.39
  -3  35  -2    5.09    1.86
  -3 -35   2    1.02    4.12
  -5 -35  -2    4.88    2.79
  -5  35   2    0.65    1.80
   5  35  -2    0.89    1.69
   5 -35   2    3.13    2.15
   5 -35   2    4.87    2.72
  -5 -35  -2   11.25    4.99
  -5  35   2    1.80    1.87
   5  35   2    1.83    1.92
  -5 -35   2   -2.25    2.23
   5 -35  -2    5.74    2.85
   5 -35  -2    1.97    1.73
  -5  35  -2    5.91    1.79
  -5  35  -2    5.22    1.88
   5  35   2    1.60    2.02
  -5 -35   2    8.76    4.04
   5 -35  -2    2.70    2.59
   0 -36  -2    1.02    0.95
   0 -36   2    1.46    0.92
   0 -36   2   -4.26    2.74
   0  36   2   -0.78    0.80
   0 -36   2    1.32    1.07
   0  36  -2   -0.20    1.11
   0  36  -2   -0.10    1.55
   0  36   2    0.11    1.95
   0  36  -2   -1.39    0.78
   0  36  -2    0.44    1.14
   0 -36  -2    2.39    2.08
   0 -36  -2    1.22    0.96
   0  36  -2   -1.20    1.14
   0  36   2    0.44    1.00
   2  36  -2    2.36    1.94
  -2 -36  -2    5.31    2.72
   2  36  -2    0.48    1.47
   2  36  -2   -0.23    0.91
   2 -36   2   -1.87    1.56
  -2 -36  -2   -0.61    1.03
  -2 -36  -2    0.49    3.17
   2 -36   2   -0.61    1.23
  -2 -36  -2   -0.79    1.11
  -2  36   2    0.85    1.65
   2 -36   2    1.65    1.62
  -2  36   2   -2.56    1.22
  -2  36   2    0.36    0.88
  -2 -36   2   -0.79    1.22
   2 -36  -2   -1.21    0.97
   2  36   2    0.17    1.10
  -2 -36   2    0.76    0.96
  -2 -36   2   -1.91    4.01
  -2 -36   2    1.27    4.57
  -2  36  -2   -0.73    1.46
   2 -36  -2    0.14    0.95
  -2  36  -2   -0.86    1.08
  -2  36  -2    3.11    1.16
   2  36   2   -0.88    0.97
   4 -36   2   -1.62    2.42
  -4 -36  -2    3.45    4.31
  -4  36   2   -0.18    1.70
   4 -36   2    1.70    2.30
  -4 -36  -2    3.02    2.00
  -4 -36  -2    2.54    5.00
   4  36  -2   -4.12    2.09
   4  36  -2    1.78    1.22
   4 -36   2   -0.62    2.10
  -4  36   2    0.11    1.25
  -4 -36   2    0.06    3.95
  -4  36  -2    2.04    1.58
  -4  36  -2   -0.51    1.48
   4 -36  -2   -0.72    1.33
  -4  36  -2    0.35    1.39
   4 -36  -2    1.54    1.83
  -4 -36   2    0.44    1.65
   4  36   2   -1.00    1.63
   4 -36  -2    1.69    2.26
   4  36   2   -2.60    1.54
   4  36   2    1.21    1.44
   4 -36  -2   -3.55    1.83
  -4 -36   2   -3.63    4.23
  -1  37   2    1.31    1.80
  -1 -37  -2    1.97    2.77
  -1  37   2    1.26    1.16
   1  37  -2    0.58    0.90
   1  37  -2    1.86    1.63
   1 -37   2   -0.28    1.12
  -1  37   2    1.76    1.00
   1  37  -2    2.05    1.27
  -1 -37  -2    0.80    1.12
  -1 -37  -2    2.57    1.17
   1 -37  -2    0.48    1.03
  -1  37  -2    0.33    0.93
   1  37   2    0.41    0.95
  -1  37  -2    0.47    1.29
  -1  37  -2    0.29    1.33
   1  37   2    2.43    1.10
   1 -37  -2    0.12    0.94
  -1 -37   2    0.30    0.96
  -1 -37   2    3.59    3.76
  -1 -37   2    2.38    1.36
   1  37   2   -1.23    2.07
  -1  37  -2    0.85    1.21
   1 -37  -2   -0.58    2.23
   3 -37   2    2.82    2.05
  -3  37   2   -2.55    1.51
  -3  37   2    9.35    2.53
   3  37  -2    4.99    2.01
  -3  37   2    1.25    1.06
   3  37  -2    1.18    1.12
  -3 -37  -2    1.38    4.25
   3 -37   2    1.25    2.07
  -3 -37  -2    0.72    3.88
  -3 -37  -2   -2.27    1.23
   3 -37  -2    0.04    1.34
   3  37   2    0.03    1.33
  -3  37  -2    0.30    1.28
  -3 -37   2    1.32    4.30
   3 -37  -2    0.87    1.90
   3  37   2   -0.56    1.10
   3 -37  -2    1.86    1.14
  -3  37  -2    0.28    1.34
  -3 -37   2   -1.40    1.29
  -3  37  -2    0.35    1.64
   3  37   2   -3.28    1.28
  -3 -37   2   -9.29    4.49
  -5 -37  -2   10.31    4.40
  -5 -37  -2    1.46    2.72
   5 -37   2    2.35    2.26
   5 -37   2    0.40    2.79
  -5  37   2   -1.01    1.77
   5  37  -2   -0.36    1.68
  -5  37   2   -4.14    1.90
   5 -37  -2    2.39    2.08
  -5 -37   2    7.63    4.81
  -5  37  -2    3.43    1.86
   5 -37  -2   -0.70    2.54
   5  37   2    0.25    1.89
  -5 -37   2   -0.35    2.33
  -5  37  -2    1.39    1.49
   5  37   2   -0.35    2.40
   5 -37  -2    3.85    2.67
   0 -38   2    7.70    1.79
   0  38  -2    8.20    1.88
   0 -38  -2    5.35    1.39
   0  38   2    6.58    1.35
   0  38  -2    4.03    1.24
   0  38   2    5.62    1.45
   0  38  -2    5.67    1.54
   0 -38   2   14.38    3.69
   0  38  -2    6.38    1.66
   0 -38  -2   11.21    2.79
   0 -38   2    8.59    1.55
   0  38   2    7.96    2.31
   0 -38  -2    5.39    1.29
   2  38  -2    5.87    1.28
  -2  38   2    1.19    2.15
   2 -38   2    7.09    1.65
   2 -38   2    4.95    2.09
   2  38  -2    5.09    1.87
  -2 -38  -2    6.80    1.66
   2  38  -2    5.00    2.14
  -2 -38  -2    3.70    3.82
  -2  38   2    5.01    1.25
  -2 -38  -2    4.34    1.50
  -2  38   2    5.63    1.68
  -2 -38  -2    3.22    3.00
   2 -38   2    3.96    2.02
  -2 -38   2    3.56    1.23
  -2  38  -2    2.32    1.84
  -2 -38   2   13.92    5.18
  -2  38  -2    4.83    1.57
   2  38   2    4.84    1.50
  -2  38  -2    6.66    1.52
  -2 -38   2    7.77    5.32
   2 -38  -2    4.47    1.30
  -2 -38   2    4.51    1.54
   2 -38  -2    2.07    1.75
   2 -38  -2    5.69    1.40
   2  38   2    5.88    1.35
   4  38  -2    3.52    1.69
  -4 -38  -2   -0.89    5.11
  -4  38   2    3.29    2.07
  -4 -38  -2    2.15    1.98
   4 -38   2    2.64    2.51
  -4  38   2    0.67    1.42
   4 -38   2    0.31    2.31
  -4 -38  -2    7.22    7.57
  -4 -38   2    0.04    4.66
   4  38   2    5.34    1.64
  -4  38  -2    1.70    1.65
  -4 -38   2    4.43    1.88
  -4  38  -2    2.40    1.77
  -4 -38   2   10.04    7.58
   4 -38  -2    1.43    1.86
   4 -38  -2    7.32    2.77
   4  38   2    0.49    1.76
   4 -38  -2    1.77    1.66
  -4  38  -2    4.78    1.97
  -1  39   2    0.95    1.04
  -1 -39  -2   -1.45    1.10
   1  39  -2   -2.08    1.36
   1  39  -2    1.26    1.73
  -1  39   2    0.63    1.29
  -1 -39  -2    1.78    1.21
  -1  39   2   -3.00    1.96
  -1 -39  -2   -4.48    2.81
   1 -39   2   -0.17    1.25
   1  39  -2   -0.33    0.95
   1 -39  -2   -4.48    2.44
  -1  39  -2   -0.95    1.00
  -1  39  -2   -3.01    1.25
  -1 -39   2   -0.70    1.29
  -1  39  -2   -0.61    1.25
   1 -39  -2   -0.33    1.06
   1  39   2   -1.19    1.17
   1  39   2    0.07    1.08
  -1 -39   2   -6.46    3.92
   1 -39  -2   -1.22    1.03
  -1  39  -2   -0.27    1.52
   3 -39   2    1.46    2.49
  -3  39   2    2.30    1.87
  -3 -39  -2   -1.11    1.49
   3 -39   2   -4.42    2.04
   3  39  -2    1.09    2.19
   3  39  -2   -0.52    1.11
   3 -39   2   -0.12    1.78
  -3 -39  -2   -6.09    4.80
  -3  39   2    0.22    1.83
  -3 -39  -2    5.86    4.43
  -3  39   2   -2.09    1.06
   3 -39  -2    0.51    1.27
   3 -39  -2    1.32    2.15
   3  39   2   -0.40    1.55
  -3 -39   2    1.67    4.83
  -3 -39   2    0.68    1.41
  -3  39  -2    0.64    1.40
  -3 -39   2    2.25    5.50
   3 -39  -2    2.69    1.57
  -3  39  -2   -0.65    1.70
  -3  39  -2   -2.67    1.50
   5  39  -2    1.39    1.83
   5 -39   2   -2.27    2.29
  -5 -39  -2    2.19    4.96
  -5  39   2    1.50    1.93
  -5  39   2   -2.19    2.11
   5 -39   2   -4.53    2.97
  -5 -39  -2   -0.85    2.76
  -5 -39   2    6.37    4.84
   5 -39  -2   -6.97    2.66
   5  39   2    0.74    2.20
  -5  39  -2   -0.45    1.69
  -5 -39   2    2.17    2.38
   5 -39  -2   -1.96    1.96
   5 -39  -2   -1.05    2.98
  -5  39  -2    2.78    1.88
   0  40   2   -0.42    1.24
   0  40   2    0.44    1.01
   0 -40  -2   -0.37    1.16
   0  40  -2    0.12    1.46
   0  40   2   -2.29    2.24
   0 -40  -2    1.33    1.00
   0 -40  -2    0.41    2.65
   0 -40   2    1.79    1.54
   0 -40   2    0.83    1.27
   0  40  -2   -0.74    1.49
   0  40  -2    2.25    1.03
   0  40  -2    1.63    1.60
  -2  40   2    0.86    2.06
  -2 -40  -2    1.93    4.20
   2 -40   2   -4.38    1.92
  -2 -40  -2    0.63    1.26
  -2  40   2   -1.97    1.08
   2  40  -2    1.51    1.84
  -2  40   2    2.33    1.65
   2  40  -2   -1.42    2.31
   2 -40   2    3.09    2.02
  -2 -40  -2   -0.61    1.34
   2 -40   2    2.06    1.67
   2  40  -2    1.06    1.12
  -2  40  -2   -1.52    1.34
  -2  40  -2   -0.10    1.76
   2 -40  -2    0.47    1.13
   2  40   2   -0.05    1.34
   2 -40  -2    0.80    1.26
  -2  40  -2   -1.03    1.13
  -2 -40   2    2.98    1.38
  -2 -40   2    0.31    1.50
  -2 -40   2    0.76    5.03
   2  40   2    0.10    1.38
   2 -40  -2   -0.46    1.68
  -4 -40  -2   -2.82    2.05
  -4  40   2   -1.06    1.90
   4 -40   2   -2.09    2.69
  -4  40   2   -0.75    1.50
   4 -40   2   -3.66    2.36
   4  40  -2    0.11    1.52
  -4 -40  -2   -1.24    5.40
   4 -40  -2    1.23    1.67
  -4 -40   2   -4.41    5.02
  -4  40  -2    0.15    1.83
  -4  40  -2   -0.70    1.68
  -4 -40   2    1.62    1.83
   4 -40  -2    2.23    2.71
  -4  40  -2   -0.57    1.71
   4  40   2   -2.80    1.98
   4  40   2   -0.22    1.60
   4 -40  -2   -1.86    1.98
   1  41  -2   15.45    2.44
   1 -41   2   14.16    2.47
   1  41  -2   14.71    2.00
   1 -41   2   18.40    2.45
  -1  41   2   11.31    3.12
  -1 -41  -2   16.07    2.10
  -1  41   2   12.34    1.95
  -1  41   2   14.87    2.27
  -1 -41  -2   20.21    4.08
   1  41  -2   11.30    2.64
  -1 -41  -2   19.43    2.35
  -1 -41   2   20.17    2.65
  -1  41  -2   18.06    2.56
   1 -41  -2   12.01    1.93
  -1 -41   2   16.46    5.24
   1  41   2   13.11    2.03
   1  41   2   16.68    2.15
   1 -41  -2   16.09    2.21
  -1  41  -2   13.12    2.43
  -1  41  -2   15.13    2.41
  -1  41  -2   18.88    2.22
  -3  41   2   12.27    2.02
   3 -41   2   19.61    5.13
   3 -41   2    3.19    2.61
  -3 -41  -2   -0.01    6.06
  -3 -41  -2   15.91    5.64
   3 -41   2   13.37    2.66
  -3  41   2   11.70    2.61
  -3  41   2   12.01    2.45
  -3 -41  -2   10.73    2.21
   3  41  -2   11.24    1.99
  -3  41  -2    8.31    2.47
  -3 -41   2   -4.87    6.60
   3 -41  -2   12.85    2.23
   3 -41  -2    9.68    2.82
  -3 -41   2   11.26    1.95
  -3  41  -2   12.67    2.45
   3  41   2   10.94    2.49
  -3 -41   2    3.32    6.28
  -3  41  -2   15.36    2.26
   3 -41  -2    6.92    1.90
   0  42   2    1.53    1.45
   0  42  -2   -0.27    1.63
   0  42  -2   -0.32    1.70
   0 -42  -2    5.53    3.08
   0  42  -2    1.37    1.12
   0  42   2   -0.93    2.35
   0 -42  -2    2.86    1.36
   0 -42   2    1.20    1.50
   0 -42   2    0.70    1.75
   0  42   2    0.21    1.11
   0 -42  -2    1.20    1.42
  -2  42   2   -2.80    2.05
   2 -42   2    2.12    2.52
  -2 -42  -2    1.11    1.47
   2 -42   2    3.72    2.40
  -2 -42  -2    0.65    1.49
   2  42  -2    1.35    2.23
  -2 -42  -2   -5.07    3.97
  -2  42   2    0.39    1.25
   2  42  -2   -0.73    2.53
   2  42  -2    0.35    1.21
  -2  42   2    2.12    1.77
   2 -42   2    0.21    1.72
  -2  42  -2   -2.02    1.93
  -2  42  -2    2.60    1.34
  -2  42  -2   -1.33    1.44
  -2 -42   2    0.40    1.60
   2 -42  -2    1.63    1.40
   2 -42  -2    0.77    1.21
   2  42   2   -0.06    1.59
   2 -42  -2    4.40    2.04
  -2 -42   2   -5.76    5.75
   2  42   2    1.41    1.44
   4  42  -2   -0.94    1.73
   4 -42   2    5.73    2.72
  -4 -42  -2    3.01    2.46
   4 -42   2   -0.44    2.32
  -4 -42  -2   10.40    6.47
  -4  42   2    0.07    1.84
  -4  42   2    0.75    1.62
   4 -42   2    2.22    3.03
   4 -42  -2    0.24    2.19
  -4 -42   2    1.53    5.59
  -4  42  -2    0.16    1.97
  -4  42  -2    1.13    1.82
  -4  42  -2    1.31    1.95
   4  42   2    1.86    2.25
   4 -42  -2   -0.26    2.81
   4 -42  -2   -2.30    1.73
  -4 -42   2    4.10    1.94
   1 -43   2    4.54    2.67
  -1 -43  -2    2.91    3.37
   1  43  -2    6.26    1.42
   1 -43   2    4.88    1.66
  -1  43   2    5.40    1.78
  -1  43   2    7.22    2.62
  -1 -43  -2    4.03    1.70
   1  43  -2    5.06    2.01
  -1  43   2    4.89    1.42
   1  43  -2    4.42    2.31
  -1 -43  -2    2.91    1.47
   1 -43   2    7.10    2.22
   1 -43  -2    4.81    1.43
   1  43   2    8.06    1.84
   1 -43  -2    5.25    1.68
  -1  43  -2    6.45    1.48
  -1  43  -2    4.24    1.84
   1  43   2    3.84    1.47
  -1  43  -2    5.89    1.96
  -1 -43   2    8.56    2.06
  -1 -43   2    5.85    5.02
  -3 -43  -2    7.04    5.96
   3  43  -2    3.15    1.59
  -3  43   2    0.73    2.19
  -3 -43  -2    5.24    2.01
   3 -43   2    1.46    2.69
   3 -43   2    3.35    2.22
  -3  43   2    4.85    1.68
  -3  43  -2    6.99    2.19
   3 -43  -2    4.54    2.67
   3 -43  -2    6.60    1.72
   3  43   2    6.49    2.16
   3 -43  -2    1.76    1.83
  -3 -43   2    0.25    2.07
  -3  43  -2    3.62    2.17
  -3 -43   2    9.41    7.09
  -3  43  -2    6.66    1.96
   0  44  -2   18.40    3.76
   0 -44  -2   18.37    3.94
   0 -44  -2   14.79    2.62
   0  44  -2   16.39    2.80
   0  44  -2   12.05    2.06
   0  44   2   17.74    3.37
   0  44   2   12.54    2.16
   0  44   2   13.82    2.31
   0 -44   2   19.77    2.88
   0 -44   2   15.79    2.58
   0 -44  -2   11.50    2.05
  -2  44   2   12.18    2.10
  -2  44   2   17.52    3.31
  -2  44   2   15.82    2.72
   2 -44   2   11.86    2.99
   2 -44   2   16.79    2.85
   2  44  -2   17.68    2.31
  -2 -44  -2    8.50    2.01
  -2 -44  -2   12.25    4.95
  -2 -44  -2   12.23    2.40
   2 -44  -2   12.69    2.95
   2 -44  -2    8.75    2.00
   2 -44  -2   13.32    2.31
   2  44   2   12.83    2.29
  -2  44  -2    9.27    2.30
  -2  44  -2   10.55    2.69
  -2 -44   2    4.49    6.67
  -2  44  -2   17.16    2.34
  -2 -44   2   12.67    2.55
   1  45  -2    6.45    2.82
  -1  45   2   17.02    2.55
  -1  45   2   11.15    3.12
  -1 -45  -2   10.39    1.88
  -1 -45  -2   22.08    4.38
  -1  45   2   12.48    1.98
   1  45  -2   11.54    1.91
   1 -45   2   13.57    2.96
  -1 -45  -2   10.97    2.25
   1 -45   2   11.27    2.20
  -1 -45   2    9.33    5.52
   1  45   2   10.55    2.15
   1 -45  -2   12.41    2.36
  -1  45  -2   11.25    2.71
  -1  45  -2   10.60    2.32
  -1  45  -2   14.06    2.20
   1  45   2   11.93    2.16
  -1 -45   2   12.77    2.68
   1 -45  -2    9.33    1.79
  -3 -45  -2   18.76    6.73
   3 -45   2    8.50    3.21
  -3  45   2    8.17    1.88
  -3  45   2    9.97    2.46
  -3 -45  -2    9.08    2.24
   3 -45   2    9.83    2.65
   3  45  -2   10.04    2.00
  -3  45  -2    9.24    2.41
  -3  45  -2   11.72    2.50
  -3  45  -2   12.17    2.97
   3 -45  -2   -0.08    2.71
   3  45   2    4.92    2.34
   3 -45  -2    7.47    2.25
   3 -45  -2    9.75    2.00
  -3 -45   2   10.40    7.22
   0  46   2   -1.28    1.33
   0  46   2   -1.32    1.75
   0  46  -2    0.82    1.44
   0 -46  -2    1.56    1.72
   0  46  -2    0.32    2.13
   0 -46   2    1.74    2.11
   0 -46  -2    0.71    1.53
  -2  46   2    0.05    1.36
   2 -46   2   -3.42    1.92
   2 -46   2    2.13    2.72
  -2  46   2   -1.84    2.11
   2 -46   2   -0.26    2.23
  -2  46   2    2.70    2.62
  -2 -46  -2   -0.05    1.77
   2  46  -2    1.31    1.40
  -2 -46  -2    3.78    4.90
  -2 -46  -2   -0.59    1.65
  -2 -46   2  -14.89    6.34
   2 -46  -2    0.71    1.55
  -2 -46   2    2.19    2.05
  -2  46  -2    0.26    2.37
  -2  46  -2    2.66    1.68
  -2  46  -2    0.25    1.90
   2  46   2    0.27    1.69
   2 -46  -2   -4.65    2.38
   2 -46  -2    0.54    1.63
  -1 -47  -2    6.44    4.24
  -1 -47  -2    2.24    1.55
   1  47  -2    2.31    1.53
  -1  47   2    2.86    2.99
   1 -47   2    3.61    2.35
   1 -47   2   -3.65    2.86
  -1 -47  -2    4.73    2.01
   1 -47   2    4.25    2.21
  -1  47   2    4.40    1.82
  -1  47   2    4.92    2.22
   1  47  -2    3.78    2.86
   1 -47  -2    5.03    1.94
  -1  47  -2    2.58    1.67
  -1 -47   2    7.53    2.37
  -1  47  -2   -0.01    2.09
   1 -47  -2    3.55    1.72
   1  47   2    4.39    1.77
   0  48  -2    2.69    2.53
   0  48   2    4.54    2.12
   0 -48  -2   -1.18    1.80
   0  48   2    0.02    1.47
   0  48  -2   -1.14    1.48
   0 -48  -2    1.71    1.64
   0 -48   2    2.68    2.33
  -2 -48  -2    0.74    4.82
   2 -48   2    2.39    2.20
  -2 -48  -2    3.77    1.89
  -2 -48  -2   -3.82    1.86
  -2  48   2    0.22    2.40
  -2  48   2    0.08    1.60
   2 -48   2    0.42    3.16
  -2  48   2   -0.71    2.74
   2 -48   2    1.65    2.43
   2  48  -2   -3.01    1.42
  -2 -48   2    3.71    7.20
  -2  48  -2   -0.68    1.64
  -2  48  -2    0.80    2.66
   2 -48  -2   -1.70    2.67
   2 -48  -2   -1.92    1.74
  -2  48  -2    1.76    2.17
   2  48   2    0.32    2.01
   1 -49   2    5.62    3.28
   1  49  -2    3.20    1.59
  -1 -49  -2   -1.40    1.72
   1  49  -2    1.31    3.38
   1 -49   2   -1.59    2.38
  -1  49   2   -1.24    2.41
  -1  49   2    0.30    1.49
  -1  49   2   -1.47    3.39
   1 -49   2    1.14    2.24
  -1 -49  -2    2.49    1.87
  -1 -49  -2    7.40    4.76
  -1 -49   2    2.77    2.34
   1  49   2    1.04    1.66
  -1  49  -2    0.12    1.56
   1 -49  -2   -2.03    1.83
   1 -49  -2   -5.11    1.53
  -1  49  -2    2.53    2.48
   0  50  -2   -2.15    2.80
   0 -50  -2    2.23    2.02
   0  50   2   -2.31    1.63
   0  50  -2   -0.94    1.63
   0   0  -3    0.98    1.31
   0   0  -3   -0.04    1.07
   0   0   3    0.30    0.25
   0   0   3    0.49    0.22
   0   0  -3    0.33    0.57
   0   0  -3    0.78    1.12
   0   0   3    1.34    1.31
   0   0  -3    1.06    0.39
   0   0   3    1.87    1.31
   0   0   3    0.62    0.26
   0   0  -3    0.87    0.37
   0   0   3    0.32    1.25
   0   0  -3    0.00    0.50
  -2   0  -3   -0.96    1.52
   2   0  -3    0.06    0.55
  -2   0   3    1.15    2.42
  -2   0   3    0.52    0.43
   2   0  -3    0.81    2.31
  -2   0  -3   -0.10    0.51
   2   0   3    0.48    0.43
  -2   0  -3   -0.74    0.89
   2   0   3    1.12    0.39
  -2   0   3    1.71    2.10
  -2   0  -3    0.10    1.78
   2   0  -3    0.84    0.54
  -2   0  -3   -1.32    1.91
  -2   0  -3    1.87    1.97
   2   0  -3    0.41    0.53
   2   0  -3    1.64    2.07
  -2   0   3    0.49    0.36
  -2   0  -3    0.96    0.51
  -2   0  -3   -0.41    0.56
  -2   0   3    0.40    0.34
  -2   0  -3    0.24    0.54
   2   0   3    0.56    0.43
  -2   0  -3    0.56    0.49
   2   0   3    1.73    2.18
   2   0   3   -0.91    1.82
   2   0   3    0.50    0.35
   2   0   3    0.72    0.38
   2   0  -3    0.12    1.96
  -2   0   3    2.96    2.14
  -4   0  -3   -0.68    1.29
  -4   0   3   -0.93    0.86
  -4   0  -3    1.07    0.78
   4   0   3    0.52    0.76
  -4   0   3    0.95    0.89
  -4   0   3   -1.37    0.68
  -4   0  -3    1.81    1.44
   4   0   3   -0.55    0.96
  -4   0   3   -0.35    0.73
  -4   0  -3   -0.09    1.09
   4   0   3    0.02    0.78
  -4   0  -3    0.17    0.69
   4   0  -3    0.44    1.01
   4   0  -3    0.54    0.91
  -4   0  -3   -0.10    1.63
   4   0   3    0.58    0.68
   4   0   3    0.29    1.04
   4   0   3    0.73    0.88
   6   0   3    1.04    1.07
   6   0   3   -0.41    1.09
  -6   0  -3   -3.17    2.04
  -6   0  -3   -2.30    1.63
  -6   0   3   -3.19    2.27
   6   0  -3    1.56    1.41
   6   0   3   -0.21    1.15
   6   0   3    0.02    0.97
  -6   0   3   -1.31    1.93
  -6   0   3   -0.22    2.51
  -6   0  -3    1.73    1.18
  -6   0   3    0.61    1.44
   6   0  -3   -0.11    1.40
   6   0  -3    1.16    1.39
  -1   1   3   21.73    1.61
  -1   1   3   18.87    1.65
  -1   1   3   22.61    3.13
   1  -1   3   22.19    1.60
   1   1  -3   21.18    1.71
  -1  -1  -3   19.26    2.03
  -1   1   3   25.02    3.62
   1  -1   3   21.72    1.49
  -1  -1  -3   22.13    1.70
   1   1  -3   21.64    1.62
   1   1  -3   22.13    3.08
  -1  -1  -3   17.37    2.59
   1  -1   3   23.00    2.90
  -1  -1  -3   22.62    3.12
  -1  -1  -3   22.56    1.73
   1   1  -3   22.71    1.44
   1  -1   3   19.62    3.03
  -1   1   3   22.71    1.58
   1   1  -3   25.85    3.21
  -1  -1  -3   23.63    2.99
   1   1  -3   23.31    3.43
  -1  -1  -3   21.50    1.61
  -1  -1  -3   22.55    1.81
  -1   1   3   22.90    3.03
   1  -1   3   20.65    2.61
   1  -1   3   22.78    1.57
  -1  -1   3   24.58    3.13
  -1  -1   3   22.18    1.70
   1   1   3   21.58    1.44
  -1  -1   3   27.51    3.71
   1  -1  -3   25.39    3.47
  -1   1  -3   23.67    2.73
   1   1   3   21.85    1.57
   1  -1  -3   19.32    2.99
  -1  -1   3   20.20    1.58
  -1   1  -3   20.84    2.73
   1  -1  -3   20.19    1.63
   1   1   3   23.39    1.61
   1  -1  -3   25.09    3.29
  -1  -1   3   26.69    3.43
   1   1   3   22.74    1.50
  -1   1  -3   21.32    1.72
   1   1   3   16.76    2.85
   1   1   3   20.02    2.76
  -1   1  -3   21.98    1.70
  -1   1  -3   19.93    2.74
   1   1   3   21.59    2.86
  -1   1  -3   21.35    1.98
  -1   1  -3   21.93    1.82
   1  -1  -3   21.55    1.68
  -1  -1   3   20.34    1.54
  -3   1   3   14.92    1.60
  -3   1   3   13.93    1.57
   3  -1   3   13.53    1.50
  -3  -1  -3   16.76    2.18
  -3  -1  -3   17.26    2.42
   3   1  -3   12.87    4.54
   3   1  -3   11.61    4.04
  -3   1   3   14.56    4.69
   3   1  -3   14.88    1.75
  -3  -1  -3   13.83    3.81
   3   1  -3   12.21    1.45
   3  -1   3   14.23    1.54
  -3  -1  -3   14.11    3.65
  -3   1   3   14.26    1.54
  -3  -1  -3   12.11    1.54
  -3  -1  -3   15.12    1.66
  -3  -1  -3   14.53    1.74
  -3   1   3   12.43    4.26
  -3   1   3   11.73    4.44
   3  -1   3   14.52    1.48
   3  -1   3   12.66    3.73
   3  -1   3   14.36    1.55
   3   1  -3   13.14    1.47
  -3  -1  -3   17.31    2.57
   3  -1   3   14.17    1.51
  -3   1   3   14.99    1.40
   3  -1   3   14.82    1.99
   3   1  -3   12.13    3.85
  -3  -1   3   17.05    1.65
  -3  -1   3   14.46    1.33
   3   1   3   12.82    1.42
  -3  -1   3   11.42    4.36
  -3   1  -3   13.80    2.27
  -3  -1   3   14.64    1.70
  -3  -1   3   13.24    5.20
   3   1   3   15.21    1.44
   3   1   3   14.83    1.50
   3  -1  -3   10.59    3.54
   3   1   3   15.01    1.76
   3   1   3    6.11    3.55
   3  -1  -3   16.28    1.82
   3  -1  -3   13.11    1.57
  -3   1  -3   18.45    4.32
   3  -1  -3   18.45    5.36
   3  -1  -3   12.77    1.26
  -3   1  -3   14.54    1.68
  -3  -1   3   17.75    5.18
   3  -1  -3    8.44    3.67
  -3   1  -3   19.58    2.41
  -3   1  -3   12.60    1.48
   3   1   3   14.69    1.53
  -3   1  -3   14.39    4.08
   3   1   3   15.20    4.43
  -3  -1   3   16.47    1.60
   3   1   3   13.03    1.44
  -3   1  -3   14.78    1.98
  -3   1  -3   15.65    1.82
   5  -1   3    6.68    1.47
   5   1  -3    6.94    1.48
  -5  -1  -3   14.55    2.57
   5  -1   3    7.37    1.40
  -5  -1  -3    4.61    2.17
  -5  -1  -3    4.96    1.18
   5   1  -3    6.59    1.60
  -5   1   3   11.49    2.00
  -5  -1  -3    6.80    2.32
  -5   1   3    7.10    1.40
   5  -1   3    9.84    1.69
   5   1  -3   10.48    1.82
   5  -1   3    8.87    1.83
   5  -1   3    7.41    1.37
  -5  -1  -3    5.77    2.27
  -5   1   3    9.09    2.16
  -5   1   3    8.51    1.77
  -5   1   3    6.35    2.03
   5  -1  -3    9.40    1.64
  -5  -1   3    7.61    2.07
  -5  -1   3   10.67    2.16
   5   1   3    8.64    1.63
  -5   1  -3    5.99    1.41
  -5  -1   3    6.44    1.62
   5   1   3   11.08    1.72
   5   1   3    6.00    1.58
  -5  -1   3    5.78    1.55
   5   1   3    6.72    1.56
   5   1   3    9.52    1.50
   5  -1  -3    6.27    1.73
  -5   1  -3    7.49    2.34
  -5   1  -3    6.67    2.39
   7  -1   3    3.02    1.61
  -7  -1  -3   -4.89    3.12
   7   1  -3    4.71    1.91
   7   1  -3    1.93    1.56
  -7   1   3    0.85    2.31
  -7  -1  -3    1.80    2.12
  -7   1   3    4.44    1.98
   7  -1   3    2.66    1.60
   7  -1   3    3.35    1.36
   7   1  -3    3.51    1.98
   7  -1  -3    1.17    1.68
  -7   1  -3    4.11    2.44
   7   1   3    4.69    1.59
   7   1   3    4.73    1.56
   7   1   3    4.85    1.41
  -7  -1   3    7.17    2.18
  -7  -1   3    1.35    4.21
  -7  -1   3    1.49    2.22
   7  -1  -3    4.93    2.17
   7  -1  -3    5.94    1.79
   0   2  -3    3.23    1.35
   0   2   3    1.09    1.39
   0  -2  -3    2.34    0.84
   0  -2  -3    1.11    0.40
   0   2   3    1.83    0.37
   0  -2  -3    2.48    0.50
   0  -2   3    1.34    0.37
   0  -2  -3    1.26    0.45
   0  -2   3    1.78    1.26
   0  -2   3    1.74    1.23
   0   2  -3    0.82    1.15
   0  -2  -3    0.17    1.32
   0   2  -3    2.58    1.29
   0   2  -3    1.59    0.40
   0  -2  -3    2.89    1.42
   0   2  -3    2.52    0.54
   0   2   3    2.42    0.45
   0   2   3    2.24    1.39
   0  -2   3   -0.13    1.19
   0   2   3    1.87    1.35
   0  -2  -3    1.80    1.61
   0  -2   3    2.79    0.44
   0   2  -3    2.34    0.48
   0   2  -3    2.16    0.45
   0   2   3    1.65    0.30
   2  -2   3   -1.51    1.79
   2  -2   3    2.17    0.52
   2  -2   3    1.40    0.48
  -2  -2  -3    1.35    0.58
   2   2  -3    2.76    2.08
  -2  -2  -3    1.24    0.55
  -2   2   3    1.94    0.48
   2  -2   3    1.47    0.50
   2   2  -3    2.11    0.53
   2   2  -3    0.00    2.26
  -2   2   3    1.86    0.53
  -2  -2  -3    2.88    1.95
  -2  -2  -3    1.04    0.92
   2  -2   3    1.91    0.58
  -2  -2  -3    5.82    2.21
  -2   2   3    1.64    0.45
  -2  -2  -3    1.81    0.58
  -2   2   3    1.22    2.59
   2  -2   3    3.78    2.21
  -2  -2  -3    1.95    0.90
   2   2  -3    1.98    0.66
   2   2  -3    1.93    0.66
  -2  -2  -3    2.20    0.67
   2   2  -3    3.02    2.16
  -2   2   3    1.28    2.41
  -2   2   3    3.50    2.24
   2  -2   3    1.20    0.50
  -2  -2   3    1.17    2.19
   2   2   3    2.16    0.52
  -2   2  -3    2.81    1.91
   2  -2  -3    2.52    0.77
   2   2   3    2.03    0.51
  -2  -2   3    1.85    0.54
  -2  -2   3    1.07    0.49
   2  -2  -3    2.74    2.08
   2  -2  -3    1.02    0.57
  -2  -2   3    2.60    2.52
   2   2   3    1.26    0.46
  -2   2  -3    3.00    1.02
   2   2   3    3.58    2.04
  -2   2  -3    1.43    0.55
  -2  -2   3    1.78    0.45
  -2  -2   3    2.33    0.58
   2  -2  -3    3.59    2.35
  -2   2  -3    1.48    0.61
  -2  -2   3    5.01    2.44
   2   2   3    1.69    0.46
  -2   2  -3    1.62    0.71
   2   2   3    2.17    0.44
  -2   2  -3    0.86    1.46
  -2   2  -3    1.90    1.95
   2   2   3    1.18    2.22
  -2   2  -3    3.02    0.94
   2  -2  -3    1.64    0.58
  -2   2  -3    1.15    1.63
   2  -2  -3    0.20    2.49
   4  -2   3    1.56    0.81
  -4  -2  -3    3.53    1.73
   4  -2   3    1.55    1.10
  -4   2   3    2.28    0.89
  -4   2   3    2.61    0.85
   4  -2   3   -0.24    0.77
   4  -2   3    1.81    1.11
  -4   2   3    3.95    1.18
  -4   2   3    1.86    0.87
   4   2  -3    1.97    1.05
   4  -2   3    2.60    0.98
  -4  -2  -3   -0.06    0.78
  -4  -2  -3   -1.07    1.22
  -4  -2  -3    1.25    1.23
   4   2  -3    3.16    0.98
   4  -2   3    1.46    0.83
  -4  -2  -3    1.82    1.67
   4  -2  -3    0.66    0.75
  -4  -2   3    0.87    0.80
  -4   2  -3    1.28    1.32
   4   2   3    1.66    0.85
  -4  -2   3    1.23    0.78
   4  -2  -3    2.20    1.08
   4   2   3    1.62    0.90
   4   2   3    2.28    1.28
  -4   2  -3    2.06    1.56
  -4   2  -3    2.23    0.85
  -4   2  -3    3.25    1.27
   4   2   3    2.18    0.92
  -4   2  -3    3.67    1.58
  -4  -2   3    2.12    0.98
  -4  -2   3    2.61    1.18
   4  -2  -3    1.75    1.02
   4   2   3    0.87    0.67
  -4   2  -3    1.10    0.90
   4   2   3    2.57    0.95
   6   2  -3    1.58    1.52
   6  -2   3    1.38    1.11
  -6   2   3    2.94    2.65
   6  -2   3    0.38    1.21
  -6   2   3   -0.61    2.42
  -6   2   3    1.86    1.54
  -6  -2  -3    0.80    1.91
  -6  -2  -3    0.18    2.28
   6   2  -3    0.55    1.41
   6   2  -3    1.69    1.40
   6  -2   3    2.41    1.44
   6  -2   3    2.20    1.26
  -6   2   3   -0.55    1.91
  -6   2  -3    1.67    1.16
   6   2   3    2.44    1.36
   6   2   3    0.95    1.03
  -6  -2   3    2.08    1.98
   6  -2  -3    1.57    1.43
   6  -2  -3    3.10    1.53
  -6  -2   3   -0.52    2.67
   6   2   3    1.14    1.23
  -6  -2   3    0.99    1.33
   6  -2  -3    0.37    1.42
  -6   2  -3    2.95    1.88
  -6   2  -3    2.29    2.31
  -6  -2   3    1.53    2.49
   6   2   3    1.71    1.23
   1   3  -3   12.80    1.09
  -1   3   3   11.52    1.09
   1  -3   3   11.62    0.96
  -1  -3  -3   10.88    1.11
   1   3  -3   11.30    2.23
  -1   3   3   11.85    2.58
  -1   3   3   10.01    2.30
  -1  -3  -3   10.99    2.35
  -1   3   3   11.67    1.03
   1  -3   3   10.75    0.94
  -1   3   3   10.79    2.32
  -1  -3  -3    8.61    2.04
  -1  -3  -3   17.15    2.00
   1   3  -3    9.96    1.16
   1   3  -3   12.78    2.16
   1  -3   3   12.23    2.02
  -1  -3  -3   12.68    1.13
  -1   3   3   12.60    1.02
  -1  -3  -3   11.42    2.23
  -1  -3  -3   12.04    1.15
   1  -3   3   13.69    2.43
   1   3  -3   11.61    0.91
  -1  -3  -3   13.32    1.50
   1  -3   3   12.19    2.15
   1  -3   3   13.02    1.06
   1   3  -3   13.58    1.22
   1   3  -3   14.67    2.58
   1  -3  -3   11.15    1.10
  -1   3  -3   10.85    1.55
   1   3   3    9.10    2.37
   1   3   3   13.25    1.06
   1   3   3   10.82    0.93
  -1  -3   3   10.20    2.27
  -1  -3   3   12.17    2.36
  -1   3  -3    8.73    1.23
  -1   3  -3   11.57    1.98
   1  -3  -3   11.17    2.28
  -1   3  -3   11.29    0.90
  -1   3  -3   13.44    1.19
   1   3   3   10.01    0.99
  -1  -3   3   11.61    0.98
   1   3   3   15.20    2.66
  -1  -3   3   11.38    1.00
  -1   3  -3   11.96    2.04
   1  -3  -3    8.13    2.19
  -1   3  -3   11.04    1.10
   1  -3  -3   10.33    1.05
  -1   3  -3   11.97    2.17
  -1  -3   3   13.17    1.17
  -1  -3   3   13.39    2.43
   1   3   3   16.56    2.51
   1   3   3   11.80    0.91
   1  -3  -3   12.56    2.65
  -3  -3  -3    7.04    1.19
  -3  -3  -3    9.18    3.74
   3  -3   3    7.89    1.20
  -3  -3  -3    6.78    3.77
   3  -3   3    8.65    1.49
   3   3  -3    3.17    3.42
  -3  -3  -3    5.60    1.55
  -3   3   3    9.74    4.75
   3   3  -3    6.28    1.13
  -3   3   3    3.53    3.91
  -3   3   3    8.00    1.24
  -3   3   3    8.10    1.01
   3   3  -3    1.90    3.96
   3  -3   3    6.92    3.50
  -3  -3  -3    7.47    1.54
  -3  -3  -3    8.49    1.77
   3  -3   3    9.34    1.31
   3   3  -3    6.48    1.17
  -3   3   3    8.76    1.31
  -3   3   3   14.29    4.43
   3   3  -3    8.27    1.08
   3  -3   3    6.67    1.21
  -3  -3  -3    6.35    1.08
  -3   3   3    7.60    1.17
   3  -3   3   10.28    1.29
  -3  -3  -3   12.30    3.83
  -3  -3  -3   12.02    3.72
   3  -3   3    7.20    1.24
   3   3  -3    3.22    3.44
  -3   3  -3    4.59    1.42
   3  -3  -3    8.87    1.34
   3   3   3    9.41    4.11
  -3   3  -3    2.24    3.62
  -3  -3   3   15.68    4.81
   3   3   3    7.93    1.08
  -3  -3   3   10.01    1.32
  -3  -3   3    7.03    0.95
  -3   3  -3    7.89    1.43
  -3  -3   3    6.49    1.25
   3   3   3    9.65    1.21
   3  -3  -3    3.30    4.12
   3  -3  -3    7.89    1.28
  -3  -3   3    8.87    1.27
   3  -3  -3   13.40    3.95
   3  -3  -3    5.60    0.86
  -3  -3   3   11.26    4.35
  -3   3  -3   10.15    1.19
  -3   3  -3    6.77    3.56
   3  -3  -3    3.83    3.35
   3   3   3    8.46    1.19
  -3   3  -3    9.34    1.74
   3   3   3    0.46    3.21
   3   3   3    8.93    1.50
  -3  -3   3    6.91    4.39
  -3   3  -3    8.02    1.37
   3   3   3    6.24    1.08
  -3   3  -3    7.61    1.31
  -5  -3  -3    2.85    1.16
  -5   3   3    2.65    1.54
   5   3  -3    3.74    1.37
   5  -3   3    4.60    1.43
  -5   3   3    3.66    1.96
  -5  -3  -3    9.19    2.40
  -5  -3  -3    2.45    1.92
   5  -3   3    3.56    1.47
  -5   3   3    2.88    1.37
   5   3  -3    3.85    1.44
   5   3  -3    5.86    1.40
  -5   3   3    5.12    1.22
   5  -3   3    2.95    0.93
   5  -3   3    3.68    1.32
  -5   3   3    6.15    1.75
  -5  -3  -3    1.55    1.98
   5  -3   3    2.92    1.07
  -5  -3  -3    4.13    2.02
   5  -3  -3    5.04    1.40
   5   3   3    3.08    1.06
  -5   3  -3    2.61    1.82
   5   3   3    4.02    1.41
   5   3   3    5.24    1.19
  -5  -3   3    5.18    1.93
   5   3   3    4.90    1.26
  -5  -3   3    3.53    1.36
  -5   3  -3    4.20    1.73
  -5  -3   3    4.65    1.65
  -5  -3   3    2.52    1.46
   5   3   3    3.51    1.45
  -5   3  -3    3.19    1.13
  -5   3  -3    1.91    0.90
   5  -3  -3    3.10    1.50
   7  -3   3    1.03    1.37
   7  -3   3    1.11    1.29
   7  -3   3    4.22    1.59
  -7  -3  -3    5.87    3.14
  -7   3   3    0.38    2.26
   7   3  -3   -0.54    1.71
  -7   3   3   -0.28    1.75
   7   3  -3    0.74    1.71
   7   3  -3   -0.93    1.86
  -7  -3  -3    3.23    2.10
   7  -3  -3    3.75    2.33
  -7  -3   3    3.00    2.37
  -7  -3   3   -5.52    3.70
   7   3   3    2.26    1.24
   7  -3  -3    2.22    1.65
  -7   3  -3    1.30    1.81
   7  -3  -3    1.00    1.69
   7   3   3    0.32    1.47
   7   3   3    1.60    1.31
  -7  -3   3    0.14    1.81
   0   4   3    3.95    1.56
   0  -4   3    4.77    1.38
   0   4  -3    5.70    1.63
   0  -4  -3    2.46    1.56
   0  -4   3    5.51    1.38
   0  -4  -3    4.75    1.01
   0   4  -3    4.54    0.66
   0  -4   3    4.30    0.62
   0   4   3    4.68    0.64
   0   4  -3    4.87    1.32
   0   4  -3    4.93    0.72
   0  -4  -3    4.73    1.59
   0   4   3    3.62    1.58
   0  -4   3    4.41    0.58
   0  -4  -3   -0.33    1.35
   0   4   3    4.76    1.83
   0  -4  -3    4.42    0.65
   0   4  -3    4.87    0.68
   0   4   3    3.97    0.47
   0   4  -3    2.04    1.18
   0  -4  -3    4.72    0.67
   0   4   3    5.84    0.69
   0  -4   3    5.19    1.43
   0   4  -3    4.10    0.43
   0   4  -3    5.59    0.86
   2   4  -3    3.87    0.59
   2  -4   3    2.92    2.06
  -2  -4  -3    3.40    0.74
  -2  -4  -3    5.15    2.53
  -2   4   3    4.58    2.74
  -2  -4  -3    3.81    1.27
  -2  -4  -3    2.80    1.91
   2   4  -3    1.79    0.70
   2   4  -3    1.42    0.77
   2   4  -3    8.01    2.81
   2  -4   3    3.76    0.72
  -2  -4  -3    2.37    2.04
  -2   4   3    4.19    0.73
   2  -4   3    4.01    0.73
  -2   4   3    5.19    2.63
   2   4  -3    4.37    0.95
  -2  -4  -3    3.52    0.79
  -2  -4  -3    4.29    2.22
  -2   4   3    4.28    0.70
  -2  -4  -3    3.08    1.02
  -2  -4  -3    4.79    0.77
   2  -4   3    3.86    2.19
   2   4  -3   -0.37    2.16
  -2   4   3    3.73    0.71
   2   4  -3    2.65    2.18
  -2   4   3    1.29    2.38
   2  -4   3    2.72    0.58
   2  -4   3    3.68    0.75
   2  -4   3    2.86    0.71
   2   4   3    3.85    0.67
   2  -4  -3    4.58    2.73
  -2  -4   3    4.15    0.62
  -2   4  -3   -0.62    1.41
   2   4   3    3.36    0.87
  -2   4  -3    4.69    2.13
   2  -4  -3    2.54    2.28
   2   4   3    3.69    0.63
   2  -4  -3    3.08    0.72
   2  -4  -3    5.14    0.86
  -2  -4   3    4.92    0.76
  -2  -4   3    3.58    0.74
   2   4   3    3.61    0.64
  -2   4  -3    4.96    1.81
   2   4   3    3.60    2.61
  -2   4  -3    3.81    0.86
  -2   4  -3    4.46    2.02
  -2  -4   3    4.76    2.51
  -2  -4   3    3.86    0.81
  -2   4  -3    2.96    1.05
  -2   4  -3    2.75    0.79
   2   4   3    3.25    0.62
  -2   4  -3    3.03    0.91
  -2   4  -3    2.23    0.68
  -2  -4   3    7.59    2.76
   2   4   3    3.12    0.52
   2  -4  -3    4.12    0.92
   2  -4  -3    1.99    2.34
  -2  -4   3    2.68    2.58
  -4   4   3    1.87    0.86
   4  -4   3    2.17    1.04
   4   4  -3    1.79    1.12
   4  -4   3    0.87    1.19
   4  -4   3    1.39    0.86
  -4   4   3    6.76    7.81
   4  -4   3    2.24    0.97
  -4  -4  -3    1.52    1.61
   4  -4   3    1.63    0.83
  -4  -4  -3   -0.14    1.26
  -4   4   3    1.37    0.80
  -4   4   3    0.50    0.89
   4   4  -3    2.49    0.98
  -4  -4  -3    1.12    0.87
   4  -4   3    0.82    0.83
  -4  -4  -3    4.64    1.85
  -4   4   3   -4.64    7.68
  -4   4   3    0.46    1.02
  -4   4   3    2.11    7.26
   4   4  -3    1.05    1.01
  -4  -4  -3    2.36    1.59
   4   4   3    2.43    1.26
  -4   4  -3    1.35    1.15
   4  -4  -3    0.67    0.78
   4   4   3    1.43    0.91
   4  -4  -3   -4.81    9.30
  -4  -4   3    1.94    0.84
  -4   4  -3    2.44    1.62
  -4  -4   3    0.62    0.90
  -4   4  -3    1.90    0.80
   4   4   3    1.65    0.86
   4  -4  -3    2.28    0.96
   4   4   3    2.04    0.88
  -4   4  -3    1.41    1.30
  -4  -4   3    0.30    0.83
   4  -4  -3   -0.49    5.06
   4   4   3    1.49    0.96
  -4  -4   3    2.57    1.15
   4  -4  -3    4.41    5.61
  -4   4  -3    1.21    0.80
   4   4   3    1.03    0.78
   4  -4  -3    1.07    0.94
   6   4  -3    1.47    1.40
   6  -4   3   -1.97    1.17
   6   4  -3    2.53    1.52
  -6   4   3    5.36    3.22
  -6  -4  -3    0.37    2.68
  -6   4   3   -0.48    1.47
  -6  -4  -3   -0.96    1.99
   6  -4   3    0.16    1.19
  -6   4   3    0.79    1.86
  -6   4   3    2.52    2.99
   6   4  -3    0.29    1.40
  -6  -4  -3    2.22    2.06
   6  -4   3    1.05    1.05
   6  -4   3    0.91    1.11
  -6  -4   3    2.10    2.50
  -6  -4   3   -1.30    2.47
   6  -4  -3    0.72    1.37
  -6   4  -3    0.07    1.12
  -6  -4   3   -0.19    1.36
   6   4   3    0.57    1.16
  -6   4  -3    2.31    2.45
  -6  -4   3    3.64    1.98
  -6   4  -3    1.07    1.94
   6  -4  -3    1.84    1.35
   6   4   3    0.34    1.14
   6   4   3    1.18    1.06
   6   4   3   -1.51    1.22
  -1   5   3  308.13   19.50
   1   5  -3  319.17   17.69
  -1  -5  -3  308.01   17.81
  -1  -5  -3  309.62   18.23
  -1   5   3  308.64   19.05
   1  -5   3  295.34   17.54
   1   5  -3  309.16   18.99
  -1  -5  -3  312.79   19.06
  -1  -5  -3  310.46   17.70
  -1   5   3  295.81   19.28
   1   5  -3  296.54   18.83
  -1  -5  -3  315.49   18.23
   1   5  -3  312.07   18.80
   1   5  -3  309.74   17.81
   1   5  -3  316.33   17.47
   1  -5   3  316.32   17.51
   1  -5   3  312.63   18.72
   1  -5   3  306.22   18.40
  -1  -5  -3  308.31   17.69
  -1   5   3  324.16   17.64
  -1  -5  -3  301.97   19.30
  -1  -5  -3  292.93   19.24
   1   5  -3  318.93   17.79
   1  -5   3  305.71   17.63
   1  -5   3  302.77   18.22
  -1   5   3  324.33   17.76
  -1   5   3  314.48   17.67
   1   5   3  324.65   19.29
  -1  -5   3  324.06   19.31
   1   5   3  305.78   17.47
  -1   5  -3  306.23   17.47
   1   5   3  314.99   17.64
   1  -5  -3  294.88   19.04
   1  -5  -3  312.74   17.73
  -1  -5   3  331.22   17.80
  -1   5  -3  318.37   17.81
  -1   5  -3  304.37   18.29
   1   5   3  308.25   18.91
   1   5   3  299.24   19.47
  -1  -5   3  323.39   18.86
  -1   5  -3  313.43   17.79
   1  -5  -3  307.22   17.62
   1  -5  -3  296.50   19.30
   1  -5  -3  282.47   17.60
  -1   5  -3  293.96   17.99
   1  -5  -3  282.64   19.34
  -1   5  -3  298.38   17.40
   1  -5  -3  309.71   18.02
   1   5   3  304.16   17.66
   1   5   3  308.78   17.52
  -1  -5   3  317.68   17.56
  -1   5  -3  319.70   18.54
  -1  -5   3  318.64   17.60
  -1  -5   3  313.60   18.60
  -1   5  -3  303.00   18.44
   3  -5   3  188.86   11.06
   3  -5   3  191.61   10.95
   3   5  -3  175.51   11.27
  -3   5   3  187.02   14.43
   3  -5   3  178.99   11.20
  -3  -5  -3  183.78   11.10
  -3  -5  -3  170.99   13.80
  -3  -5  -3  173.29   11.70
  -3   5   3  199.77   11.18
  -3   5   3  182.28   13.99
  -3   5   3  185.52   11.06
  -3   5   3  196.32   11.04
  -3   5   3  180.28   10.79
  -3  -5  -3  166.99   13.25
   3   5  -3  177.97   11.15
   3   5  -3  141.38   13.63
   3   5  -3  189.00   11.08
   3   5  -3  176.83   14.69
   3   5  -3  186.53   10.79
   3  -5   3  189.15   11.00
   3  -5   3  198.91   11.17
   3  -5   3  149.60   13.53
  -3  -5  -3  175.80   10.98
  -3   5   3  180.47   14.33
  -3  -5  -3  184.01   11.37
   3  -5   3  187.44   10.96
  -3  -5  -3  176.67   13.03
  -3  -5  -3  188.65   13.80
   3   5  -3  145.97   13.34
  -3  -5  -3  186.04   12.15
  -3  -5   3  186.90   10.69
  -3  -5   3  195.12   11.16
  -3   5  -3  189.74   11.51
  -3   5  -3  154.59   13.46
  -3   5  -3  197.40   11.28
   3  -5  -3  195.44   11.13
   3   5   3  170.53   14.37
  -3  -5   3  172.82   14.09
  -3   5  -3  188.12   11.25
   3  -5  -3  192.14   11.18
  -3   5  -3  180.26   11.10
  -3   5  -3  148.39   13.00
   3  -5  -3  170.50   13.37
   3   5   3  188.90   10.79
   3   5   3  188.99   10.88
   3  -5  -3  177.21   13.91
   3   5   3  190.89   10.91
   3   5   3  191.90   13.94
   3   5   3  184.94   10.95
  -3  -5   3  189.88   11.37
  -3  -5   3  176.08   14.60
   3  -5  -3  166.04   14.37
  -3  -5   3  203.52   14.71
  -3   5  -3  183.67   11.60
  -3  -5   3  193.65   11.16
  -3   5  -3  175.01   11.28
   3   5   3  183.72   11.21
   5  -5   3   81.73    5.75
  -5  -5  -3   69.04    6.13
   5   5  -3   85.43    5.67
   5   5  -3   79.88    5.60
  -5  -5  -3   75.83    6.49
  -5   5   3   81.97    5.79
  -5  -5  -3   88.24    6.39
  -5   5   3   80.21    5.99
  -5   5   3   77.01    6.30
   5  -5   3   83.71    5.46
   5   5  -3   78.72    5.69
  -5   5   3   72.09    6.22
  -5  -5  -3   72.69    5.32
   5  -5   3   89.03    5.61
  -5  -5  -3   76.63    7.03
  -5   5   3   77.30    5.43
   5  -5   3   80.33    5.75
  -5   5  -3   77.80    5.52
  -5  -5   3   86.35    6.10
  -5   5  -3   73.54    6.56
  -5  -5   3  102.54    6.59
   5   5   3   72.93    5.54
   5  -5  -3   78.78    5.66
  -5   5  -3   61.01    6.04
   5   5   3   67.57    5.38
  -5  -5   3   78.83    6.59
   5  -5  -3   77.97    6.04
  -5  -5   3   76.47    5.67
  -5   5  -3   81.24    5.57
   5   5   3   83.96    5.68
   5   5   3   86.65    5.59
   5  -5  -3   82.77    5.12
  -7   5   3   27.97    4.15
  -7   5   3   27.50    3.67
   7   5  -3   27.25    3.28
   7   5  -3   30.02    3.49
  -7  -5  -3   27.42    3.81
  -7  -5  -3   21.68    4.59
   7  -5   3   27.35    3.17
   7  -5   3   31.78    3.22
   7  -5   3   32.60    3.10
   7   5  -3   29.40    3.84
   7   5   3   24.57    3.14
   7  -5  -3   25.82    3.29
  -7  -5   3   24.95    4.83
   7   5   3   30.88    2.98
  -7  -5   3   30.55    4.34
  -7  -5   3   32.40    4.07
   7  -5  -3   32.96    3.29
  -7  -5   3   35.82    7.47
   7   5   3   32.82    3.24
  -7   5  -3   34.08    4.47
   0  -6  -3   16.72    2.69
   0  -6   3   10.50    1.67
   0  -6  -3   13.85    1.55
   0   6  -3   12.45    1.10
   0   6  -3   11.94    1.03
   0  -6   3   12.09    1.02
   0  -6  -3   12.31    1.11
   0  -6  -3   10.94    2.45
   0  -6   3   12.35    2.06
   0  -6   3   13.22    1.89
   0   6  -3   11.78    1.83
   0   6   3   11.49    0.90
   0   6   3   12.69    1.06
   0   6  -3   11.85    1.17
   0   6  -3   11.73    0.88
   0   6   3   12.31    2.45
   0   6  -3   14.32    2.09
   0  -6  -3   11.87    1.03
   0   6   3   15.06    2.49
   0   6   3   12.19    1.03
   0   6  -3   12.79    1.84
   0  -6  -3   10.11    2.36
   0   6   3   13.15    2.52
   0  -6   3   12.15    0.93
   0   6  -3   11.48    1.17
   2   6  -3    6.96    2.57
  -2  -6  -3    9.92    2.54
  -2   6   3    7.92    3.15
   2   6  -3   11.49    1.46
   2  -6   3   11.19    1.15
   2  -6   3   10.92    2.61
   2  -6   3   11.08    1.37
  -2  -6  -3   11.30    1.30
   2   6  -3   15.40    3.39
  -2   6   3   13.70    3.34
   2   6  -3    8.75    2.86
   2  -6   3   10.88    1.35
  -2  -6  -3    8.64    1.77
  -2   6   3   12.05    1.06
  -2   6   3   11.10    1.10
  -2  -6  -3   10.45    1.30
   2   6  -3    8.63    1.33
   2  -6   3    6.90    2.43
   2   6  -3   10.57    1.00
   2  -6   3   10.31    1.27
  -2  -6  -3   11.03    1.81
   2   6  -3    9.72    0.89
  -2  -6  -3   10.52    1.19
  -2  -6  -3   11.12    2.65
  -2   6   3   10.32    1.13
  -2   6   3   13.08    3.32
   2   6  -3    9.97    1.22
  -2   6  -3   11.67    2.71
  -2  -6   3   17.63    3.19
   2  -6  -3    9.24    2.86
  -2   6  -3   10.42    1.39
  -2  -6   3    4.45    3.04
   2   6   3    8.00    2.95
  -2   6  -3    9.91    1.02
   2  -6  -3   14.84    3.14
  -2   6  -3   10.94    2.49
  -2  -6   3   12.17    2.89
  -2  -6   3   11.51    1.17
  -2   6  -3    8.97    1.38
  -2   6  -3   12.05    2.05
  -2   6  -3   10.94    2.05
   2  -6  -3   10.18    1.04
   2  -6  -3   11.83    1.17
   2   6   3    8.30    0.87
   2   6   3   11.36    1.04
   2   6   3   10.74    1.26
   2   6   3   10.20    1.03
   2  -6  -3   10.95    1.44
  -2  -6   3   11.11    1.19
   2  -6  -3   10.40    1.15
  -2  -6   3   12.60    1.01
   2  -6  -3    8.62    3.37
   2   6   3    9.85    1.07
  -2  -6   3   10.32    1.45
  -2   6  -3   10.36    1.25
   2   6   3    9.35    0.96
   4  -6   3    6.45    1.68
  -4  -6  -3    7.18    2.10
  -4   6   3    7.86    1.45
   4   6  -3    5.60    1.18
  -4  -6  -3    5.75    1.24
   4   6  -3    7.35    1.42
   4  -6   3    7.77    1.62
  -4   6   3   15.08    7.56
   4  -6   3    8.31    1.41
   4   6  -3    9.64    1.67
  -4   6   3    7.18    1.36
  -4   6   3   -4.91    7.14
   4  -6   3   10.10    1.51
   4  -6   3    7.84    1.48
  -4  -6  -3    4.94    1.95
  -4   6   3    7.57    1.25
  -4  -6  -3    8.20    2.07
  -4  -6  -3    5.30    1.58
  -4   6   3    7.86    1.56
  -4   6   3   10.54    7.19
   4  -6   3    8.22    1.41
   4   6   3    9.38    1.93
   4  -6  -3   -0.70    5.21
   4  -6  -3    2.06    8.04
   4   6   3    6.07    1.25
  -4   6  -3    7.56    1.76
  -4  -6   3    7.48    1.48
   4  -6  -3    9.63    1.70
  -4  -6   3    8.93    1.76
   4   6   3    7.40    1.36
  -4   6  -3    6.50    1.40
   4   6   3    6.99    1.21
  -4  -6   3    5.72    1.18
   4  -6  -3    5.21    1.40
  -4   6  -3    5.92    1.23
   4   6   3    6.89    1.22
   4  -6  -3    3.67    4.99
  -4  -6   3    7.65    1.45
   4   6   3    7.95    1.39
   4  -6  -3    6.42    1.09
  -4   6  -3    5.80    1.54
   6  -6   3    4.00    1.48
   6   6  -3    5.18    1.46
  -6   6   3    2.68    1.66
  -6  -6  -3    6.22    2.68
   6   6  -3    5.53    1.59
  -6  -6  -3    3.19    2.37
  -6  -6  -3    8.49    2.55
   6  -6   3    7.98    1.67
  -6   6   3    6.88    2.39
   6  -6   3    6.94    1.70
  -6   6   3   -2.12    3.09
   6   6  -3    5.89    1.67
   6  -6   3    3.37    1.12
  -6   6  -3    5.72    1.42
  -6   6  -3    3.68    2.08
   6   6   3    3.98    1.28
   6   6   3    6.46    1.80
  -6   6  -3    4.97    2.52
  -6   6  -3    4.20    1.32
   6   6   3    4.80    1.36
   6  -6  -3    5.06    1.73
   6  -6  -3    2.86    1.57
  -6  -6   3    3.29    2.68
  -6  -6   3   -0.56    2.70
  -6  -6   3    2.61    2.07
   6   6   3    1.15    1.34
  -6  -6   3    4.76    1.63
  -1  -7  -3   29.46    2.23
  -1  -7  -3   27.44    2.15
  -1  -7  -3   35.00    4.16
   1   7  -3   29.86    1.95
   1   7  -3   30.96    2.08
  -1   7   3   30.08    4.17
   1   7  -3   28.07    3.32
   1  -7   3   28.34    1.91
   1   7  -3   30.48    2.24
  -1   7   3   31.22    2.15
   1   7  -3   29.19    1.94
  -1   7   3   28.09    3.70
  -1  -7  -3   30.81    2.69
  -1   7   3   30.32    2.06
   1   7  -3   31.72    2.22
  -1  -7  -3   30.80    3.92
  -1  -7  -3   30.68    3.67
  -1   7   3   34.55    4.51
  -1  -7  -3   28.52    2.54
   1  -7   3   29.03    2.95
   1  -7   3   27.76    2.06
  -1   7   3   29.77    2.11
   1   7  -3   26.21    3.40
  -1  -7  -3   28.76    2.11
   1  -7   3   28.61    2.04
   1   7  -3   32.05    3.48
   1   7   3   28.18    2.09
   1  -7  -3   34.08    4.20
  -1   7  -3   29.59    1.89
  -1   7  -3   29.95    2.45
  -1   7  -3   31.64    2.24
   1  -7  -3   29.51    2.16
  -1  -7   3   28.64    3.76
  -1  -7   3   29.81    1.98
   1  -7  -3   29.19    2.03
   1   7   3   32.15    4.16
  -1   7  -3   30.56    2.75
   1   7   3   29.11    1.93
   1   7   3   30.51    3.89
   1  -7  -3   30.60    3.97
  -1  -7   3   29.48    2.01
   1   7   3   31.93    1.99
   1   7   3   31.93    2.08
   1  -7  -3   30.84    2.44
  -1  -7   3   27.64    3.26
   1   7   3   30.07    3.62
  -1   7  -3   27.51    2.18
  -1  -7   3   33.60    3.13
   1  -7  -3   29.74    4.21
   1  -7  -3   29.21    2.12
  -1   7  -3   27.30    2.71
  -1   7  -3   28.72    1.93
  -1  -7   3   29.56    2.16
  -1   7  -3   33.11    3.03
  -1   7  -3   26.73    2.64
  -3  -7  -3   14.70    2.59
  -3   7   3   15.38    4.75
  -3   7   3   15.72    1.58
  -3  -7  -3   16.80    2.24
  -3   7   3   13.42    1.13
  -3  -7  -3   16.79    1.77
   3  -7   3   14.55    1.56
   3   7  -3   17.83    1.52
  -3   7   3   14.53    4.67
   3  -7   3   16.18    1.64
   3  -7   3   19.31    2.11
  -3  -7  -3   15.17    2.44
  -3  -7  -3   16.24    1.71
   3  -7   3   13.06    4.16
  -3  -7  -3   10.24    3.77
  -3   7   3   15.08    1.49
  -3  -7  -3   12.65    3.96
  -3   7   3   16.56    1.73
   3  -7   3   20.07    1.98
   3  -7   3   13.78    1.63
  -3   7   3   14.01    1.58
   3   7  -3   17.29    1.75
   3  -7   3   14.88    1.73
  -3   7   3   23.16    5.30
  -3  -7  -3   13.28    4.40
   3   7  -3   17.29    2.14
   3   7  -3   16.63    1.87
  -3  -7  -3    7.75    3.75
  -3  -7   3   14.80    1.69
   3   7   3   16.12    1.56
   3  -7  -3    9.37    3.99
  -3   7  -3   17.74    1.82
  -3  -7   3   16.23    1.90
   3  -7  -3    7.90    4.10
  -3   7  -3   14.87    1.91
  -3   7  -3   10.14    4.42
  -3   7  -3   16.35    1.90
   3  -7  -3   17.44    5.13
   3   7   3   17.37    1.86
   3   7   3   13.99    1.54
   3   7   3   17.53    1.66
   3   7   3   13.10    4.53
  -3   7  -3   16.22    1.80
  -3  -7   3   16.50    1.75
   3   7   3   16.02    1.47
   3   7   3   17.24    1.53
  -3   7  -3   10.15    4.14
   3   7   3   17.35    4.42
  -3  -7   3   16.85    1.40
   3  -7  -3   18.94    1.79
   3  -7  -3   14.60    2.02
  -5  -7  -3    6.70    1.39
   5  -7   3    6.59    1.38
  -5   7   3    6.89    2.04
   5  -7   3    8.26    1.51
   5   7  -3    7.31    1.56
  -5  -7  -3    5.22    2.48
  -5  -7  -3    4.31    2.34
  -5  -7  -3   10.17    2.56
   5   7  -3    4.89    1.41
  -5   7   3    6.50    2.08
  -5   7   3    6.75    1.73
  -5  -7  -3    3.86    2.00
  -5   7   3    6.09    1.57
   5  -7   3    5.53    1.61
   5   7  -3    5.27    1.51
   5  -7   3    8.17    1.63
  -5   7   3    7.27    1.48
   5  -7   3    7.89    1.36
   5   7   3    5.74    1.27
  -5  -7   3    5.59    1.77
   5  -7  -3    5.60    1.31
   5  -7  -3    3.56    1.22
   5   7   3    5.90    1.36
  -5   7  -3    6.03    1.30
   5  -7  -3    9.88    1.81
  -5  -7   3    4.71    1.58
  -5   7  -3    8.65    1.51
   5   7   3    4.17    1.54
   5  -7  -3    7.84    1.86
  -5   7  -3    6.96    2.11
  -5   7  -3    5.70    2.18
   5   7   3    5.11    1.29
  -5  -7   3    5.03    1.52
  -5  -7   3    6.75    2.09
   5   7   3    5.15    1.45
   7   7  -3    0.25    1.64
  -7   7   3   -2.65    2.07
   7  -7   3   -1.29    1.52
  -7   7   3    0.97    1.96
   7   7  -3    0.52    2.02
   7  -7   3   -0.11    1.17
  -7  -7  -3    7.03    2.28
   7  -7   3    3.09    1.51
   7   7   3   -0.87    1.53
  -7  -7   3    7.46    3.94
  -7  -7   3    1.24    2.41
  -7   7  -3    1.48    2.08
   7  -7  -3    0.67    1.71
  -7  -7   3    3.04    2.04
   7  -7  -3    0.80    1.61
   7   7   3    3.50    1.42
   0   8  -3  126.63    7.30
   0   8  -3  120.38    7.19
   0   8   3  107.13    8.81
   0   8   3  119.38    6.92
   0  -8   3  121.50    7.05
   0   8   3  123.51    7.17
   0   8  -3  124.78    7.74
   0  -8   3  110.16    7.89
   0   8  -3  118.31    6.94
   0  -8   3  116.35    6.94
   0   8   3  124.28    7.11
   0   8  -3  122.99    7.80
   0   8  -3  118.11    7.09
   0  -8   3  126.84    7.54
   0  -8  -3  120.16    7.21
   0  -8  -3  114.99    7.03
   0  -8   3  131.64    7.73
   0   8   3  119.64    8.44
   0  -8  -3  113.42    8.82
   0   8   3  123.58    8.80
   0   8  -3  122.68    7.68
   0   8  -3  125.31    7.34
   0   8   3  114.93    6.95
   0  -8  -3  109.40    8.70
   0  -8  -3  121.55    8.58
   0  -8  -3  127.50    7.68
   2   8  -3   98.73    5.54
  -2  -8  -3   95.28    5.81
   2   8  -3   92.93    7.70
   2  -8   3   80.77    7.26
  -2  -8  -3   92.41    5.77
  -2  -8  -3   81.51    7.45
  -2   8   3   91.99    5.72
   2  -8   3   95.37    7.18
   2  -8   3   88.04    5.68
  -2   8   3   93.73    5.68
   2  -8   3   83.36    5.69
   2  -8   3   95.64    5.71
   2   8  -3   87.08    7.52
  -2   8   3   92.34    8.37
   2  -8   3   85.78    5.71
   2   8  -3   93.06    5.36
   2   8  -3   89.30    5.80
  -2  -8  -3   88.44    7.81
   2   8  -3   91.03    5.79
  -2   8   3   87.77    8.20
  -2  -8  -3   83.75    5.67
  -2   8   3   96.08    5.61
   2   8  -3   88.49    5.86
  -2  -8  -3   88.15    6.41
  -2   8   3   92.92    7.91
  -2  -8  -3   98.15    6.56
  -2   8  -3   95.87    5.86
   2  -8  -3   92.09    5.60
   2   8   3   97.15    5.70
   2   8   3   92.23    5.50
   2   8   3   86.61    8.37
  -2   8  -3   94.80    6.06
   2  -8  -3   80.07    7.49
  -2   8  -3   81.11    6.86
  -2   8  -3   88.55    6.55
   2   8   3   88.49    5.54
  -2  -8   3   94.17    5.70
  -2   8  -3   87.94    5.44
  -2  -8   3   93.97    5.75
  -2   8  -3   95.54    5.99
  -2  -8   3   91.67    5.43
   2  -8  -3   88.99    8.28
  -2  -8   3   86.01    8.44
   2  -8  -3   85.80    5.29
  -2  -8   3   97.05    7.40
  -2  -8   3   96.50    6.01
   2  -8  -3   93.78    5.84
  -2  -8   3   94.70    7.81
   2  -8  -3   94.69    5.75
  -2   8  -3   84.43    6.35
  -2   8  -3   94.91    7.33
   2   8   3   87.24    5.41
   2   8   3   92.01    5.55
   2   8   3   90.22    5.79
   2  -8  -3   93.37    8.08
  -4   8   3   47.44    3.78
   4   8  -3   50.94    3.58
  -4  -8  -3   42.88    4.39
  -4   8   3   46.69    3.65
   4  -8   3   56.64    3.67
  -4   8   3   46.02    3.52
   4  -8   3   40.22    3.50
   4  -8   3   46.36    3.50
  -4  -8  -3   48.18    3.93
  -4   8   3   52.76   10.18
  -4   8   3   52.58    9.99
   4   8  -3   45.70    3.41
  -4  -8  -3   42.14    3.47
  -4   8   3   49.91    9.57
  -4   8   3   46.95    3.87
   4  -8   3   50.12    3.54
  -4  -8  -3   39.19    4.85
  -4  -8  -3   42.38    4.61
   4  -8   3   44.12    3.77
   4  -8   3   41.37    3.90
   4   8  -3   47.73    3.81
  -4   8  -3   41.50    3.86
   4   8   3   48.06    3.56
  -4  -8   3   47.69    3.84
  -4   8  -3   47.27    4.20
   4   8   3   48.52    3.51
   4   8   3   47.24    3.49
   4  -8  -3   47.19    9.78
  -4  -8   3   51.54    4.33
   4  -8  -3   45.15    3.72
   4   8   3   49.13    3.56
  -4   8  -3   46.66    3.58
   4  -8  -3   40.47    3.64
   4  -8  -3   44.38    3.31
  -4   8  -3   42.70    3.65
   4  -8  -3   34.99    7.15
  -4  -8   3   44.07    3.35
  -4  -8   3   44.46    3.79
   4   8   3   46.30    4.01
   4  -8  -3   20.97    6.58
  -6  -8  -3   22.48    3.37
   6   8  -3   22.10    2.75
   6  -8   3   21.37    2.54
   6  -8   3   22.29    2.53
   6   8  -3   20.74    2.52
  -6   8   3   21.80    3.17
   6  -8   3   21.73    2.59
  -6  -8  -3   18.59    3.67
   6   8  -3   21.77    2.67
  -6  -8  -3   27.48    4.00
  -6   8   3   20.67    3.29
  -6  -8  -3   20.92    3.83
  -6   8   3   17.11    2.48
   6  -8   3   22.68    2.47
   6   8   3   22.01    2.55
   6   8   3   17.61    2.44
  -6  -8   3   14.50    3.64
   6  -8  -3   16.99    2.90
  -6  -8   3   16.73    2.79
  -6   8  -3   14.17    2.19
  -6   8  -3   20.70    2.36
   6  -8  -3   19.09    2.72
   6   8   3   22.41    2.53
   6   8   3   32.69    3.13
  -6   8  -3   19.45    3.40
  -6  -8   3   17.43    3.66
  -6  -8   3    9.57    2.80
   1  -9   3    3.44    0.49
   1  -9   3    4.39    0.66
   1   9  -3    3.78    0.67
  -1  -9  -3    5.36    0.83
  -1  -9  -3    4.12    0.74
  -1  -9  -3    0.78    2.10
   1  -9   3    3.81    1.27
  -1   9   3    3.72    2.34
   1   9  -3    3.41    1.71
   1   9  -3    3.98    0.53
  -1  -9  -3    4.02    2.18
  -1   9   3    4.81    0.71
   1   9  -3    1.18    1.58
  -1   9   3    1.87    2.21
  -1  -9  -3    3.44    0.92
   1   9  -3    5.20    0.91
   1  -9   3    2.97    0.63
   1   9  -3    4.04    0.66
  -1   9   3    2.85    0.57
  -1  -9  -3    2.05    1.87
   1   9  -3    3.79    0.58
  -1   9   3    3.36    2.10
   1   9  -3    3.07    1.83
  -1  -9  -3    3.77    1.27
   1  -9   3    2.49    1.24
  -1   9   3    3.79    0.66
  -1   9  -3    4.30    0.75
   1   9   3    2.73    2.25
   1   9   3    3.51    0.61
   1  -9  -3    3.29    0.63
  -1   9  -3    4.90    1.19
  -1  -9   3    3.97    0.67
   1   9   3    3.88    0.58
  -1   9  -3    3.78    0.73
   1  -9  -3    4.56    0.55
  -1  -9   3    2.06    1.38
  -1  -9   3    2.68    1.48
  -1  -9   3    3.27    0.58
   1  -9  -3    1.05    2.00
  -1  -9   3    3.80    2.24
  -1   9  -3    4.61    1.12
   1   9   3    4.20    0.57
   1  -9  -3    4.98    1.07
  -1   9  -3    4.25    0.51
  -1  -9   3    5.35    0.63
  -1   9  -3    2.26    1.16
   1  -9  -3    3.65    0.75
   1   9   3    3.37    2.25
  -1   9  -3    4.41    1.32
   1   9   3    4.22    0.60
   1  -9  -3    4.29    0.77
   1  -9  -3    1.97    1.99
  -1   9  -3    3.82    0.55
  -1   9  -3    4.22    0.85
   1   9   3    2.71    2.50
   1  -9  -3    5.35    2.74
   3  -9   3    3.49    1.03
  -3   9   3    9.25    4.38
   3  -9   3    2.68    1.10
  -3   9   3    2.08    0.43
  -3  -9  -3    1.23    1.22
   3   9  -3    2.86    0.92
   3   9  -3    2.80    0.72
  -3  -9  -3    1.41    1.10
   3   9  -3    1.90    0.64
  -3   9   3    2.39    0.80
  -3  -9  -3    2.15    1.63
  -3  -9  -3    1.41    0.78
   3  -9   3    3.88    0.92
   3  -9   3    1.04    0.91
  -3   9   3    1.13    0.63
  -3  -9  -3    7.18    4.10
  -3   9   3    2.89    0.77
  -3  -9  -3    3.51    1.02
   3  -9   3    2.73    0.76
  -3   9   3    1.38    4.43
   3  -9   3   -0.42    3.51
  -3  -9  -3    4.97    4.12
  -3   9   3    7.73    4.36
   3   9  -3    4.23    1.06
  -3   9   3    2.01    0.72
   3   9  -3    2.34    0.86
   3  -9   3    3.32    0.91
  -3  -9  -3   -2.61    3.77
  -3  -9  -3   -0.80    3.71
  -3  -9   3    1.72    0.87
   3   9   3    1.55    0.63
   3  -9  -3    2.93    1.27
   3   9   3    2.14    1.00
   3   9   3    0.50    3.89
  -3   9  -3   -0.09    3.67
   3   9   3    1.70    0.68
  -3   9  -3    4.13    3.72
  -3   9  -3    2.56    0.99
  -3   9  -3    1.40    0.76
   3  -9  -3    2.16    0.74
   3  -9  -3    5.59    3.98
   3   9   3    2.44    0.66
  -3  -9   3    2.72    0.94
  -3  -9   3    2.04    0.75
   3   9   3    3.00    0.70
   3  -9  -3   -1.77    4.73
   3  -9  -3    4.29    3.72
   3   9   3   -0.98    3.98
  -3  -9   3    3.07    0.58
  -3   9  -3    3.26    1.06
   3  -9  -3    3.57    0.79
   3   9   3    2.66    0.70
   3   9   3    1.61    0.50
   5   9  -3    0.75    1.24
  -5   9   3    3.01    2.18
   5  -9   3    3.23    1.16
  -5  -9  -3    3.00    2.24
  -5   9   3    2.22    1.51
   5  -9   3    2.98    1.17
   5   9  -3    1.62    1.25
  -5   9   3    2.51    1.30
   5  -9   3    3.14    1.10
  -5   9   3    0.93    1.27
  -5  -9  -3    1.35    1.89
   5   9  -3    3.36    1.28
  -5  -9  -3    0.62    2.14
  -5   9   3    1.03    1.29
   5  -9   3    0.01    1.37
   5  -9   3   -0.01    0.96
  -5  -9  -3   -3.42    1.71
   5   9   3    1.87    1.12
   5   9   3   -2.36    1.32
  -5   9  -3    0.29    0.97
  -5   9  -3    0.29    1.50
   5  -9  -3    3.85    1.24
  -5  -9   3    1.69    1.39
   5   9   3    4.82    1.26
  -5   9  -3    3.30    0.91
  -5  -9   3   -0.47    1.03
  -5  -9   3    2.04    1.72
   5   9   3    3.36    1.15
  -5  -9   3    2.09    2.00
   5  -9  -3   -1.21    1.21
   5  -9  -3    1.65    1.40
   5  -9  -3    0.54    1.13
  -5   9  -3    1.35    1.85
   7  -9   3    0.78    1.37
  -7   9   3    1.16    1.96
   7   9  -3    1.21    1.79
   7  -9   3   -0.70    1.31
  -7   9   3   -0.21    2.19
  -7  -9  -3    4.91    2.32
   7  -9   3    2.02    1.64
   7   9  -3    0.70    1.59
   7   9   3    0.24    1.62
  -7   9  -3   -0.30    1.97
   7  -9  -3    1.82    1.73
  -7   9  -3    2.82    1.59
  -7  -9   3    2.94    3.72
   7   9   3   -0.77    1.53
  -7  -9   3    2.13    1.69
   7   9   3    1.57    1.42
   7  -9  -3    1.87    1.63
  -7  -9   3    1.63    2.32
   0  10  -3   -0.95    1.04
   0  10  -3    0.26    0.37
   0 -10  -3    2.51    1.98
   0 -10   3    0.56    0.38
   0  10  -3    1.33    0.66
   0 -10   3   -0.86    1.27
   0  10   3    0.69    0.27
   0 -10  -3    1.01    0.39
   0 -10   3    0.36    0.28
   0  10  -3    0.46    0.94
   0  10   3    0.82    0.27
   0  10   3    0.62    0.30
   0  10   3    2.42    2.12
   0 -10   3    0.78    0.26
   0 -10   3    0.72    0.84
   0 -10  -3    0.29    0.42
   0  10  -3    0.09    0.26
   0 -10   3    1.02    0.92
   0 -10  -3    1.74    1.83
   0  10   3   -0.43    1.91
   0  10   3   -2.55    2.07
   0 -10  -3    2.35    1.76
   0  10   3    0.49    0.34
   0  10  -3    0.84    0.37
   0 -10  -3   -0.69    0.68
   0  10  -3    0.57    0.40
   0  10  -3    1.16    1.11
  -2 -10  -3   -1.90    2.48
   2 -10   3    0.45    0.54
   2 -10   3    0.40    0.70
   2 -10   3    1.18    0.60
   2 -10   3   -1.49    1.72
   2  10  -3    2.56    2.90
  -2 -10  -3   -0.61    0.52
   2 -10   3    0.72    0.62
   2  10  -3    0.13    0.37
  -2  10   3    0.18    0.33
  -2  10   3   -0.10    0.39
  -2  10   3    2.52    2.85
  -2 -10  -3    0.31    0.64
  -2 -10  -3   -1.81    2.50
   2  10  -3   -2.30    2.68
  -2  10   3   -3.63    2.75
  -2  10   3    0.43    2.97
   2  10  -3    0.28    0.53
  -2 -10  -3    0.66    1.16
   2 -10   3   -0.62    2.33
  -2 -10  -3    1.04    0.93
  -2  10   3    0.42    0.41
   2 -10   3    0.15    0.79
  -2  10   3    0.16    0.45
   2  10  -3   -1.93    2.33
   2  10  -3    0.35    0.62
   2  10   3   -0.04    2.86
  -2 -10   3    3.25    2.31
  -2 -10   3    0.20    0.67
   2  10   3    0.64    0.40
   2  10   3    0.50    0.41
  -2  10  -3   -0.14    0.40
  -2  10  -3   -1.32    1.28
   2 -10  -3   -0.99    3.10
  -2  10  -3    0.84    0.54
   2  10   3    0.82    0.48
  -2  10  -3   -0.07    0.33
   2  10   3    0.07    0.37
   2 -10  -3   -0.18    0.43
  -2  10  -3    2.84    2.30
  -2 -10   3    0.58    0.34
  -2 -10   3    1.26    3.36
  -2  10  -3    0.79    1.34
  -2  10  -3    0.64    0.61
   2 -10  -3    0.95    0.80
  -2 -10   3    0.64    2.46
   2 -10  -3    0.82    0.41
   2 -10  -3   -3.30    2.44
  -2 -10   3   -0.17    0.53
   2  10   3    0.29    0.37
  -2  10  -3    4.25    2.44
  -2 -10   3    0.11    0.46
   2 -10  -3    2.20    2.67
   2  10   3    0.37    0.64
  -2  10  -3    0.95    0.60
   4 -10   3    0.24    0.83
   4 -10   3    2.50    1.22
  -4 -10  -3   -0.41    1.20
   4 -10   3    1.01    0.87
   4 -10   3   -0.22    0.91
  -4 -10  -3   -2.87    1.73
   4 -10   3    0.60    1.26
  -4 -10  -3    1.35    1.88
   4  10  -3    2.69    0.86
  -4 -10  -3    1.14    1.02
   4  10  -3    1.01    0.98
  -4  10   3   10.87    8.26
  -4 -10  -3    0.93    1.57
  -4  10   3    0.92    0.81
  -4  10   3    1.15    0.86
   4  10  -3    1.26    1.17
  -4  10   3   -3.97    7.96
   4 -10   3    0.46    0.72
  -4  10   3   -0.57    1.02
  -4  10   3   -1.06    7.96
  -4  10   3    0.46    0.98
   4  10   3    0.25    1.23
   4  10   3   -0.19    0.90
  -4 -10   3    1.06    0.99
   4  10   3    0.24    0.75
   4 -10  -3   -0.44    0.81
  -4 -10   3   -0.41    1.23
   4 -10  -3   -7.73    8.64
  -4 -10   3    0.85    0.94
  -4  10  -3    0.06    0.63
   4  10   3    0.59    0.82
  -4  10  -3    0.15    1.00
  -4 -10   3    1.80    0.94
  -4  10  -3    0.61    0.86
   4  10   3   -1.24    0.78
   4  10   3   -0.58    0.73
   4  10   3    0.03    0.73
   4 -10  -3    0.63    1.01
   4 -10  -3   -6.25    5.84
   4 -10  -3    0.34    5.68
   4 -10  -3   -0.21    1.04
   6  10  -3    1.08    1.41
  -6  10   3    2.70    1.66
  -6 -10  -3   -1.17    2.40
  -6  10   3   -0.42    1.90
   6 -10   3    0.98    1.17
  -6 -10  -3    3.58    3.01
  -6 -10  -3    3.12    2.52
  -6 -10  -3    0.13    1.87
   6 -10   3   -0.98    0.92
   6 -10   3   -2.51    1.27
  -6  10   3    0.64    1.71
   6 -10   3    0.52    1.19
   6  10  -3    2.13    1.38
   6  10  -3   -2.46    1.69
   6  10  -3    2.84    1.57
  -6 -10   3   -1.47    1.33
  -6 -10   3   -1.09    2.00
   6  10   3   -0.11    1.05
   6  10   3   -1.92    1.31
  -6 -10   3   -1.23    2.45
  -6 -10   3   -1.39    2.60
  -6  10  -3   -1.97    0.96
   6 -10  -3    0.19    1.39
  -6  10  -3   -0.47    1.90
  -6  10  -3   -0.22    1.07
   6  10   3   -2.25    1.16
   6 -10  -3    2.96    1.62
   6 -10  -3   -1.30    1.55
  -1 -11  -3    7.08    1.47
  -1 -11  -3    8.66    0.98
   1 -11   3    4.61    1.56
  -1 -11  -3    4.94    2.61
  -1 -11  -3    8.03    1.04
   1  11  -3    7.11    0.80
   1  11  -3   11.36    2.61
  -1 -11  -3    4.95    0.71
  -1  11   3    3.40    2.33
   1 -11   3    5.83    0.59
  -1 -11  -3    6.68    2.47
  -1  11   3    7.18    2.70
   1  11  -3    6.08    0.69
   1  11  -3    6.85    0.93
  -1 -11  -3    5.60    2.39
   1 -11   3    6.02    0.97
  -1 -11  -3    5.46    1.14
   1 -11   3    6.73    0.84
   1  11  -3    8.98    1.17
   1  11  -3    6.12    1.87
   1 -11   3    7.14    0.95
   1 -11   3    6.61    1.20
   1  11  -3    4.37    0.73
  -1  11   3    6.15    0.85
  -1  11   3    7.30    0.95
  -1  11   3    7.03    0.87
   1  11  -3    5.53    2.27
  -1  11   3    3.36    2.27
   1 -11  -3    6.08    0.69
  -1  11  -3    4.03    0.96
   1 -11  -3    7.99    2.60
  -1 -11   3    6.74    2.75
  -1  11  -3    6.84    0.72
  -1  11  -3    6.38    1.22
  -1  11  -3    6.19    0.71
  -1  11  -3    5.56    0.96
  -1 -11   3    8.22    1.70
   1 -11  -3    8.82    1.40
   1 -11  -3    8.50    2.72
   1  11   3    7.24    2.75
   1  11   3    6.41    0.69
   1 -11  -3    8.57    0.98
  -1 -11   3    7.98    1.71
   1  11   3    6.46    0.74
   1  11   3    9.03    2.63
   1  11   3    7.59    2.53
   1  11   3    5.57    0.83
  -1 -11   3    6.50    0.70
  -1 -11   3    7.88    0.91
   1  11   3    7.35    0.80
   1 -11  -3    8.78    1.09
   1 -11  -3    6.14    2.74
  -1 -11   3    7.99    1.15
  -1  11  -3    5.67    1.44
  -1  11  -3    8.25    1.14
   1 -11  -3    6.22    0.79
  -1  11  -3    6.50    1.38
  -1  11  -3    7.55    0.99
  -1 -11   3    6.28    0.80
   3  11  -3    2.72    1.10
  -3  11   3    1.88    0.69
  -3 -11  -3    8.57    4.48
  -3 -11  -3    1.13    0.83
   3  11  -3    2.68    0.67
   3 -11   3    2.02    1.09
   3  11  -3    1.34    0.59
  -3  11   3    1.16    0.68
  -3  11   3    2.74    0.74
  -3 -11  -3    6.91    4.42
   3 -11   3    1.47    3.63
  -3  11   3    0.90    4.64
   3 -11   3    4.65    1.23
   3 -11   3    3.59    0.84
   3 -11   3    3.37    1.03
  -3 -11  -3    6.59    3.81
   3  11  -3    2.47    0.77
  -3 -11  -3   -0.45    1.66
  -3 -11  -3    3.46    3.87
   3  11  -3    2.87    1.01
   3 -11   3    2.57    0.95
  -3  11   3    1.62    0.47
  -3 -11  -3   -0.85    1.27
   3 -11   3    2.99    0.77
  -3  11   3    3.93    4.66
  -3 -11  -3    2.36    1.23
  -3  11   3   -0.31    4.41
  -3  11   3    4.10    0.96
   3  11   3    1.75    0.50
  -3 -11   3    1.39    0.76
   3  11   3    0.81    0.61
  -3 -11   3    1.70    0.91
   3 -11  -3   -0.21    3.76
   3  11   3    2.11    0.62
   3 -11  -3    4.31    3.96
  -3 -11   3    1.55    0.56
   3 -11  -3    2.80    1.27
  -3  11  -3    1.36    0.88
  -3  11  -3    2.09    0.77
  -3  11  -3   -0.90    3.73
   3 -11  -3    2.42    0.84
   3  11   3    2.04    4.73
   3 -11  -3   10.71    5.29
   3  11   3    3.23    0.70
   3  11   3    3.12    1.01
   3  11   3    2.78    0.67
  -3  11  -3    2.91    3.70
  -3  11  -3    3.21    0.91
   3  11   3   -0.22    4.21
   3  11   3    2.29    0.65
  -3  11  -3    2.77    0.93
  -3 -11   3    2.35    0.98
   3 -11  -3    1.18    0.70
  -5 -11  -3    1.66    2.42
  -5  11   3    0.04    2.14
   5  11  -3   -1.56    1.14
  -5  11   3    0.04    1.22
   5 -11   3   -1.38    1.43
  -5 -11  -3    1.49    2.35
   5 -11   3   -0.20    0.89
  -5 -11  -3    0.89    1.90
  -5  11   3    0.72    1.49
   5  11  -3   -1.48    1.42
  -5  11   3   -0.09    1.20
   5 -11   3   -0.13    1.11
  -5  11   3    1.47    1.66
   5 -11   3    0.75    1.00
   5  11  -3    0.74    1.20
   5  11  -3    0.79    1.17
  -5 -11  -3   -3.00    1.81
   5 -11   3   -0.22    0.98
   5 -11  -3    0.55    1.22
   5 -11  -3    2.56    1.38
  -5  11  -3   -0.31    0.91
   5  11   3    2.30    1.64
  -5 -11   3   -0.26    1.06
  -5 -11   3    1.00    1.58
  -5 -11   3   -0.80    1.88
   5 -11  -3   -1.95    1.19
   5  11   3   -2.78    1.47
   5 -11  -3    0.16    1.25
  -5 -11   3    1.18    1.84
   5  11   3   -0.01    1.07
  -5  11  -3    1.87    1.55
   5  11   3    0.72    1.11
  -5  11  -3   -1.21    0.75
   5  11   3   -0.08    1.21
   5  11   3    0.21    0.98
  -7 -11  -3    3.61    2.42
  -7  11   3   -2.07    1.82
   7 -11   3    0.25    1.26
  -7  11   3   -0.39    2.25
   7  11  -3   -0.52    1.61
  -7 -11  -3    2.81    2.92
   7 -11   3    0.77    1.62
   7  11  -3    0.29    1.88
   7 -11   3   -0.57    1.38
   7 -11  -3   -0.41    1.55
  -7  11  -3    3.24    2.17
  -7 -11   3    0.60    1.90
  -7  11  -3    0.94    1.44
   7  11   3   -0.80    1.34
  -7 -11   3    1.61    3.90
  -7 -11   3   -2.32    2.39
   7  11   3    0.11    1.64
   7 -11  -3    1.91    1.89
   7  11   3   -0.73    1.69
   0  12   3   10.47    0.88
   0  12   3   10.43    2.76
   0 -12   3    7.92    0.94
   0 -12   3   11.58    1.21
   0  12  -3    8.36    1.66
   0 -12   3    9.52    1.15
   0  12   3   10.30    0.97
   0 -12  -3   10.78    1.78
   0  12  -3    9.95    1.34
   0  12  -3   11.65    1.03
   0 -12   3   10.43    0.89
   0 -12   3    6.44    1.74
   0 -12  -3    9.64    1.07
   0  12  -3    7.30    1.12
   0  12  -3    6.85    1.52
   0 -12  -3    8.05    0.89
   0 -12   3    9.34    0.77
   0  12   3   10.18    0.84
   0  12  -3   10.80    1.02
   0 -12  -3   11.85    3.15
   0  12  -3   10.71    0.88
   0  12   3   11.41    3.04
   0 -12  -3    6.34    2.32
   0 -12  -3    7.65    2.52
   0  12   3    7.71    0.95
   0 -12   3   10.40    0.89
   0  12   3    6.95    2.58
   0  12  -3   11.45    1.36
  -2 -12  -3   10.55    3.30
   2 -12   3    7.73    1.25
   2 -12   3    6.17    1.11
   2 -12   3    7.54    1.12
  -2  12   3    8.28    1.04
  -2  12   3    9.81    3.56
   2  12  -3    7.51    1.13
  -2  12   3    6.08    3.39
  -2 -12  -3    7.14    1.71
   2  12  -3    6.70    4.33
  -2 -12  -3    7.56    3.25
   2  12  -3    5.18    0.99
   2  12  -3    1.85    4.07
  -2 -12  -3    9.54    2.16
  -2 -12  -3    7.32    1.13
   2 -12   3    9.97    1.47
   2  12  -3    6.97    0.90
  -2 -12  -3    6.83    3.03
   2 -12   3    7.16    1.99
  -2  12   3    7.00    0.81
   2 -12   3    3.02    2.52
  -2 -12  -3    7.34    1.22
  -2  12   3    5.83    0.89
  -2  12   3    7.66    1.00
  -2  12   3   12.07    3.48
   2  12  -3    6.35    0.77
   2 -12   3    6.10    1.13
   2 -12  -3    6.65    1.19
  -2  12  -3    6.89    1.47
   2 -12  -3    2.76    2.87
   2 -12  -3    7.64    0.82
  -2 -12   3    7.29    5.42
  -2 -12   3    8.01    1.10
   2 -12  -3    8.00    1.06
   2  12   3    7.96    0.96
   2  12   3    7.64    3.48
  -2 -12   3    7.29    1.22
  -2  12  -3    9.62    2.59
  -2  12  -3    7.09    1.23
   2  12   3    9.44    1.05
  -2  12  -3    7.18    1.25
   2  12   3    7.16    0.91
  -2  12  -3    7.04    1.12
  -2  12  -3    7.38    0.90
  -2  12  -3    6.58    0.79
  -2 -12   3    6.72    0.77
  -2  12  -3    5.56    2.36
  -2  12  -3    3.34    1.38
   2  12   3    9.27    1.28
   2  12   3    7.49    0.93
   2 -12  -3    6.47    3.34
  -2 -12   3    7.32    1.11
   2 -12  -3    7.92    3.98
  -4 -12  -3    0.42    1.61
   4 -12   3    3.18    1.10
  -4 -12  -3    3.60    2.03
  -4  12   3    2.29    1.06
   4  12  -3    1.23    0.89
  -4  12   3    3.98    1.22
   4 -12   3    1.74    0.82
   4 -12   3    4.51    1.29
   4  12  -3    4.11    1.05
   4  12  -3    3.45    1.23
   4  12  -3    3.78    1.36
   4 -12   3    2.37    0.89
   4 -12   3    3.28    1.37
  -4  12   3    3.31    0.97
  -4 -12  -3    1.74    1.36
   4 -12   3    2.94    1.34
  -4  12   3    0.73    1.17
  -4 -12  -3    1.77    2.03
   4 -12  -3    3.39    1.53
  -4 -12   3    3.21    1.06
   4  12   3    3.33    1.04
   4  12   3    3.43    0.85
   4  12   3    3.19    1.04
   4  12   3    2.65    0.94
   4 -12  -3    3.66    1.08
  -4  12  -3    2.01    1.21
  -4  12  -3    4.32    1.07
   4  12   3    3.53    1.04
  -4  12  -3    2.62    1.12
   4 -12  -3    2.06    1.17
  -4 -12   3    2.63    1.60
   4  12   3    2.59    1.45
  -4 -12   3    2.28    1.25
   4  12   3    3.43    0.97
  -4 -12   3    1.47    1.00
  -6  12   3    2.26    1.76
   6  12  -3    0.78    1.46
  -6  12   3    1.87    2.00
   6  12  -3   -1.01    1.32
  -6 -12  -3    2.14    2.50
  -6  12   3   -2.19    1.69
   6 -12   3    1.46    1.07
   6 -12   3    2.77    1.27
   6  12  -3    0.10    1.56
  -6 -12  -3   -1.51    2.94
   6 -12   3    3.34    1.49
  -6 -12  -3    3.84    2.26
  -6 -12  -3   -1.99    2.38
   6 -12   3    0.31    1.33
   6 -12  -3   -0.01    1.44
  -6 -12   3    3.57    2.39
  -6  12  -3    2.60    1.84
  -6  12  -3    2.67    1.16
  -6 -12   3   -0.09    1.46
   6  12   3    2.21    1.52
  -6  12  -3    1.41    1.13
  -6 -12   3    2.61    2.99
   6 -12  -3    0.39    1.67
   6 -12  -3    1.08    1.72
   6 -12  -3   -0.04    1.55
   6  12   3    1.21    1.24
  -6 -12   3   -0.45    2.72
   6  12   3    1.89    1.78
   6  12   3   -2.14    1.25
   1  13  -3    4.12    0.83
   1  13  -3    5.58    2.50
   1  13  -3    3.50    0.67
  -1 -13  -3    5.33    0.92
   1  13  -3    3.71    0.57
  -1  13   3    5.74    0.85
  -1 -13  -3    5.84    1.38
  -1 -13  -3    5.18    2.51
   1  13  -3    4.45    0.81
  -1 -13  -3    4.59    2.76
   1  13  -3    4.81    0.69
   1 -13   3    4.75    0.93
  -1  13   3    3.70    2.74
   1 -13   3    3.59    0.79
  -1  13   3    4.67    0.73
  -1 -13  -3    5.74    0.73
  -1  13   3    2.29    2.50
   1  13  -3    4.77    1.73
  -1  13   3    5.94    2.86
  -1 -13  -3    4.44    1.05
  -1 -13  -3    4.17    2.70
   1 -13   3    4.05    0.45
  -1  13   3    4.74    0.76
  -1 -13  -3    4.11    0.72
   1 -13   3    4.16    0.68
   1  13  -3    0.77    2.23
  -1  13  -3    4.56    0.61
  -1 -13   3    3.86    0.70
   1 -13  -3    5.73    1.21
  -1  13  -3    3.98    0.74
  -1  13  -3    5.09    1.15
   1 -13  -3    4.93    2.81
   1 -13  -3    4.23    0.61
   1  13   3    2.17    2.50
  -1 -13   3    3.87    0.70
   1 -13  -3    5.58    0.74
   1  13   3    5.90    0.74
   1 -13  -3    1.49    2.28
  -1  13  -3    3.47    0.76
   1  13   3    6.58    2.89
   1  13   3    5.28    0.70
   1 -13  -3    4.95    0.80
   1  13   3    5.00    0.74
  -1 -13   3    2.95    1.44
   1  13   3    3.42    2.67
  -1 -13   3    4.39    0.59
   1 -13  -3    6.64    2.53
   1  13   3    5.32    0.86
  -1  13  -3    4.72    0.69
  -1 -13   3    3.45    0.78
  -1 -13   3    0.75    2.68
  -1 -13   3    4.03    1.54
  -3 -13  -3    1.67    1.93
   3 -13   3    2.62    1.05
  -3 -13  -3    3.05    4.57
  -3  13   3    6.04    4.88
  -3 -13  -3    3.55    4.78
  -3  13   3    3.51    0.89
  -3 -13  -3   -1.21    4.11
  -3 -13  -3    3.27    1.41
   3  13  -3    2.38    0.96
   3 -13   3    2.10    0.71
  -3  13   3    7.32    5.47
   3 -13   3    3.00    1.20
  -3  13   3    1.99    0.75
  -3 -13  -3   -3.60    3.84
   3 -13   3    3.20    1.05
  -3  13   3    2.96    0.78
  -3 -13  -3    2.78    0.91
   3 -13   3    4.32    1.10
   3 -13   3    3.96    3.73
  -3  13   3   10.44    5.56
  -3  13   3    3.01    0.76
   3 -13   3    3.16    0.78
   3  13  -3    3.32    0.77
   3  13  -3    3.89    0.84
   3  13  -3    2.66    0.94
  -3 -13  -3    3.96    1.85
  -3  13   3    2.43    0.51
  -3 -13   3    3.84    0.93
   3  13   3    2.16    0.78
  -3  13  -3    2.38    0.85
   3 -13  -3    0.99    1.07
   3  13   3    3.10    0.69
  -3  13  -3    1.00    0.85
  -3  13  -3    4.86    0.95
   3 -13  -3    1.71    0.77
   3 -13  -3    1.82    0.66
   3  13   3    3.15    0.73
  -3  13  -3    3.08    0.90
   3  13   3    2.17    0.55
   3  13   3    2.26    0.63
  -3 -13   3    2.68    0.99
   3  13   3   10.56    5.27
  -3 -13   3    2.07    0.63
   3 -13  -3    6.10    5.15
   3 -13  -3    1.56    4.48
   3  13   3    3.42    1.32
  -3 -13   3    1.89    0.90
   3  13   3    1.97    0.68
  -3  13  -3   -3.08    3.55
   3 -13  -3    7.96    4.24
  -3  13  -3    4.00    3.65
   3  13   3   -2.93    4.63
   5  13  -3    1.44    1.31
  -5  13   3    0.94    1.55
   5 -13   3    2.35    1.12
  -5 -13  -3    4.90    2.02
   5  13  -3    1.58    1.24
  -5  13   3    2.39    1.30
  -5  13   3   -1.78    1.25
   5 -13   3    1.26    0.94
  -5 -13  -3    0.20    2.33
  -5  13   3    2.53    1.81
   5 -13   3    1.15    1.42
   5  13  -3    2.08    1.21
   5 -13   3    1.23    1.07
   5 -13   3    0.59    1.21
  -5 -13  -3    0.17    1.93
  -5 -13  -3    0.98    2.65
   5 -13  -3    0.44    1.53
  -5 -13   3    2.50    1.29
  -5  13  -3    1.86    1.53
  -5  13  -3    0.65    0.89
   5 -13  -3    0.89    1.40
  -5  13  -3    1.82    1.12
   5 -13  -3   -0.72    1.23
   5 -13  -3    0.18    1.25
   5  13   3   -0.22    1.43
  -5 -13   3   -2.49    1.46
  -5 -13   3   -0.09    1.74
   5  13   3   -0.42    1.07
   5  13   3    2.31    1.12
   5  13   3    1.52    1.13
   5  13   3    0.86    1.44
  -5 -13   3    1.89    1.87
  -7  13   3    2.75    2.18
   7 -13   3    0.05    1.67
   7  13  -3    2.25    2.03
   7  13  -3   -1.34    1.64
  -7 -13  -3   -0.11    2.36
  -7  13   3    1.90    2.39
   7 -13   3   -0.45    1.40
  -7 -13  -3    1.63    2.88
   7 -13   3    1.38    1.38
  -7 -13   3    3.93    2.67
  -7 -13   3   -0.14    1.83
   7  13   3    1.93    1.85
  -7  13  -3    0.69    1.49
  -7  13  -3   -1.39    1.39
  -7 -13   3   -1.45    3.70
   7 -13  -3    0.25    1.99
   7  13   3    1.07    1.70
   7  13   3    4.96    1.56
  -7  13  -3    1.42    2.15
   7 -13  -3    1.50    1.64
   0 -14   3   88.25    6.35
   0 -14   3  109.63    6.31
   0 -14   3  105.39    6.18
   0 -14  -3  113.05    8.78
   0  14   3  107.12    8.73
   0 -14   3  100.17    6.30
   0  14  -3  100.80    6.84
   0 -14  -3  104.80    6.22
   0  14   3  126.34    8.66
   0  14  -3  112.22    6.34
   0  14  -3  106.14    6.45
   0  14   3  106.24    6.32
   0  14   3  114.55    6.55
   0 -14  -3  108.24    7.08
   0 -14  -3  114.03    8.54
   0  14  -3  108.50    6.65
   0  14  -3  110.84    6.53
   0 -14  -3  108.94    6.61
   0  14   3  111.64    6.41
   0 -14  -3  109.44    8.93
   0  14   3  104.87    8.84
  -2 -14  -3   88.32    8.57
  -2  14   3   71.01    8.57
  -2 -14  -3   87.28    8.19
  -2 -14  -3   85.33    6.57
  -2  14   3   88.78    5.23
   2 -14   3   85.05    5.61
   2 -14   3   85.43    5.60
   2 -14   3   89.28    5.57
  -2 -14  -3   87.84    5.50
  -2  14   3   91.69    5.51
   2 -14   3   84.58    5.62
  -2 -14  -3   87.56    6.42
  -2 -14  -3   81.14    5.56
   2  14  -3   86.63    5.62
   2  14  -3   90.14    5.34
  -2  14   3   79.26    8.42
   2 -14   3   78.04    5.52
   2 -14   3   84.45    5.71
  -2  14   3   97.03    8.60
  -2  14   3   86.35    5.40
   2 -14   3   85.12    5.61
  -2  14   3   85.79    5.47
  -2 -14  -3   75.13    8.50
   2  14  -3   89.89    5.65
   2  14   3   87.25    5.57
   2 -14  -3   85.47    8.15
  -2  14  -3   82.69    5.32
  -2  14  -3   87.44    5.60
  -2  14  -3   83.30    5.27
   2  14   3   87.38    5.35
  -2 -14   3   91.70    5.55
  -2 -14   3   84.84    5.11
   2  14   3   85.14    5.28
  -2  14  -3   81.23    5.18
   2  14   3   90.43    5.54
  -2  14  -3   94.90    5.92
  -2  14  -3   81.28    5.39
  -2  14  -3   84.75    5.27
  -2 -14   3   86.21    5.96
   2  14   3   85.89    5.29
   2 -14  -3   90.06    5.57
   2 -14  -3   85.30    5.18
  -2  14  -3   85.85    5.88
  -2 -14   3   93.75    5.76
   2 -14  -3   98.19    8.82
   2  14   3   85.90    9.27
   2 -14  -3   92.17    5.75
  -2  14  -3   84.15    5.52
   2 -14  -3   92.16    9.06
  -4  14   3   45.36    3.80
   4 -14   3   43.97    3.93
   4 -14   3   50.43    3.69
  -4  14   3   43.86    3.69
   4 -14   3   50.89    3.63
   4  14  -3   47.44    3.41
  -4 -14  -3   49.35    5.47
  -4 -14  -3   39.61    5.91
   4 -14   3   41.93    3.42
  -4 -14  -3   45.04    4.03
  -4 -14  -3   40.37    4.35
  -4  14   3   40.42    3.91
   4  14  -3   47.08    3.60
   4  14  -3   43.98    3.78
   4 -14   3   45.94    4.08
  -4  14   3   49.75    3.75
   4 -14   3   47.33    3.82
  -4 -14   3   46.70    3.82
   4  14   3   49.45    3.64
  -4 -14   3   51.04    4.73
  -4 -14   3   50.46    4.00
  -4  14  -3   46.55    3.88
   4  14   3   47.52    4.02
   4 -14  -3   47.20    4.06
   4 -14  -3   44.81    3.65
   4  14   3   54.50    3.90
   4  14   3   51.21    3.58
  -4 -14   3   37.31    3.36
   4 -14  -3   45.90    3.77
   4  14   3   46.66    3.59
  -4  14  -3   48.79    3.73
   4  14   3   42.26    3.43
  -4  14  -3   42.65    3.91
  -6 -14  -3   23.47    3.59
  -6 -14  -3   20.50    3.91
   6 -14   3   23.05    2.68
  -6  14   3   20.72    3.44
  -6  14   3   22.23    3.45
   6  14  -3   19.45    2.44
   6  14  -3   18.40    2.69
   6  14  -3   19.89    2.66
   6 -14   3   24.09    2.94
  -6  14   3   20.68    2.78
  -6 -14  -3   24.95    3.80
  -6 -14  -3   19.21    4.24
   6 -14   3   22.43    2.57
   6 -14   3   17.22    2.55
   6  14   3   18.57    2.60
  -6  14  -3   19.81    2.61
  -6  14  -3   18.42    2.47
   6 -14  -3   25.13    3.00
  -6 -14   3   16.15    3.19
  -6 -14   3   18.34    2.94
  -6 -14   3   17.74    3.70
   6  14   3   19.11    2.76
   6 -14  -3   17.69    2.90
   6  14   3   25.75    2.80
   6 -14  -3   27.01    2.89
   6  14   3   19.05    2.90
  -6 -14   3   19.95    4.15
   6 -14  -3   17.50    2.48
  -6  14  -3   21.20    3.43
   1  15  -3   74.62    4.83
  -1  15   3   62.60    7.35
  -1 -15  -3   74.22    6.79
  -1  15   3   80.04    7.30
   1 -15   3   75.44    4.66
  -1  15   3   77.62    4.76
   1  15  -3   74.77    5.49
   1  15  -3   78.32    4.61
  -1 -15  -3   68.05    5.22
   1 -15   3   70.56    4.59
   1  15  -3   74.47    4.75
   1  15  -3   72.11    4.83
  -1 -15  -3   77.71    7.26
  -1 -15  -3   72.01    4.50
  -1  15   3   71.81    7.45
  -1 -15  -3   72.37    7.21
  -1 -15  -3   76.12    4.87
   1  15  -3   74.42    5.41
  -1  15   3   75.38    4.63
  -1  15   3   73.50    4.65
   1 -15   3   65.40    4.77
   1  15  -3   76.55    5.74
  -1 -15  -3   73.24    4.52
   1 -15   3   75.36    4.77
  -1 -15  -3   68.13    5.41
   1  15  -3   74.96    4.56
  -1  15  -3   75.26    5.15
   1  15   3   74.57    6.98
  -1 -15   3   73.05    5.14
   1 -15  -3   68.14    7.29
  -1  15  -3   74.77    4.57
  -1  15  -3   75.66    4.53
   1  15   3   66.78    7.42
   1 -15  -3   74.42    5.17
  -1 -15   3   68.39    5.90
  -1 -15   3   70.91    5.00
  -1 -15   3   72.49    4.74
  -1 -15   3   74.36    5.36
   1  15   3   78.02    4.77
  -1 -15   3   77.23    4.64
  -1 -15   3   76.73    4.72
   1 -15  -3   64.13    6.79
   1 -15  -3   71.96    4.49
   1 -15  -3   79.27    4.84
  -1  15  -3   70.80    4.82
  -1  15  -3   82.59    4.95
  -1 -15   3   75.15    4.43
   1  15   3   76.27    4.55
   1 -15  -3   74.81    7.79
   1  15   3   76.18    4.57
   1  15   3   82.42    7.53
   1  15   3   73.72    4.58
   3 -15   3   51.65    3.49
  -3 -15  -3   42.72    4.72
   3  15  -3   41.93    3.46
  -3  15   3   33.52    7.38
  -3  15   3   48.15    3.31
   3 -15   3   37.83    3.45
  -3  15   3   43.22    3.12
   3 -15   3   41.98    3.04
   3  15  -3   45.28    3.14
  -3  15   3   27.64    6.65
  -3 -15  -3   37.06    7.02
   3 -15   3   34.82    5.00
  -3 -15  -3   27.63    6.12
  -3 -15  -3   47.27    3.78
  -3 -15  -3   43.39    3.44
   3  15  -3   43.73    3.00
   3 -15   3   47.43    3.61
  -3  15   3   42.33    7.46
  -3  15   3   39.69    2.84
  -3 -15  -3   42.68    4.80
  -3  15   3   39.11    3.30
  -3 -15  -3   39.59    6.76
  -3 -15  -3   51.78    7.64
   3 -15   3   43.85    3.51
  -3  15   3   47.15    3.28
   3  15  -3   45.30    3.43
   3 -15   3   48.51    3.45
   3 -15  -3   42.87    3.11
   3 -15  -3   38.20    6.52
   3  15   3   45.96    3.08
   3 -15  -3   28.89    6.90
   3  15   3   42.67    3.01
   3 -15  -3   41.22    6.90
   3  15   3   44.44    3.15
  -3  15  -3   43.53    5.10
  -3  15  -3   43.41    5.20
   3 -15  -3   43.01    3.57
  -3 -15   3   44.58    4.01
  -3 -15   3   45.12    3.55
   3  15   3   44.67    3.31
   3  15   3   30.33    6.79
  -3 -15   3   49.59    3.51
  -3  15  -3   42.34    3.13
   3  15   3   45.65    7.23
  -3  15  -3   45.00    3.47
  -3 -15   3   43.32    2.90
  -3  15  -3   49.29    3.53
   3 -15  -3   42.11    3.30
   3  15   3   45.49    3.65
   3  15   3   42.76    3.10
  -3  15  -3   40.74    3.63
  -5  15   3   19.38    2.67
   5 -15   3   22.03    2.64
  -5 -15  -3   23.42    4.30
   5  15  -3   19.63    2.43
  -5 -15  -3   24.98    3.38
  -5 -15  -3   18.28    3.25
   5 -15   3   19.23    2.22
   5 -15   3   20.93    2.29
   5  15  -3   18.35    2.39
   5 -15   3   24.87    2.49
  -5  15   3   20.72    2.69
  -5  15   3   21.51    3.36
  -5 -15  -3   17.89    4.04
   5  15  -3   19.32    2.49
  -5 -15   3   14.43    3.34
   5  15   3   15.25    2.34
   5 -15  -3   17.35    2.72
  -5 -15   3   17.67    3.35
  -5 -15   3   20.74    3.29
   5 -15  -3   23.61    3.19
   5  15   3   21.71    2.95
   5  15   3   18.93    2.45
   5  15   3   14.72    2.34
  -5  15  -3   18.73    2.29
   5  15   3   21.09    2.45
  -5  15  -3   16.61    2.98
  -5 -15   3   21.70    2.72
  -5  15  -3   17.79    2.46
   5 -15  -3   13.12    2.21
   5 -15  -3   14.29    2.14
  -7  15   3    3.55    2.61
   7  15  -3    8.76    2.24
  -7 -15  -3    3.95    2.63
  -7  15   3    2.52    2.51
   7 -15   3    5.47    1.73
  -7 -15  -3    4.73    2.86
   7  15  -3    9.01    2.25
   7 -15   3   10.24    2.20
   7 -15   3   10.20    2.09
  -7 -15   3    6.32    2.91
  -7 -15   3    2.93    3.98
   7 -15  -3    8.39    2.20
   7  15   3    9.60    1.91
   7  15   3    7.73    2.14
   7  15   3    6.73    2.19
  -7  15  -3    6.05    1.80
  -7  15  -3    7.01    1.80
  -7  15  -3    2.52    2.43
  -7 -15   3    8.90    2.37
   7 -15  -3    7.46    2.50
   0 -16   3   10.77    1.07
   0 -16  -3   14.24    1.58
   0  16   3   15.94    3.46
   0  16   3   12.98    1.14
   0  16  -3   12.49    1.17
   0  16  -3   11.55    1.15
   0  16   3   12.88    1.22
   0 -16  -3   11.35    1.25
   0 -16  -3    9.91    3.10
   0  16  -3   11.41    1.05
   0  16   3   11.10    3.31
   0 -16  -3   14.64    3.14
   0  16   3   16.26    3.74
   0 -16   3   12.26    1.01
   0  16   3    9.06    1.08
   0  16   3   13.39    1.07
   0  16   3    8.91    1.14
   0  16  -3   12.32    1.57
   0  16  -3   13.01    1.28
   0 -16   3    7.24    1.21
   0 -16  -3   16.74    2.32
   0 -16  -3   12.07    3.45
   2 -16   3   11.05    1.55
  -2  16   3   12.35    4.28
   2  16  -3    8.75    1.01
  -2 -16  -3    9.20    2.02
   2 -16   3    9.28    0.90
  -2  16   3    9.96    1.27
  -2 -16  -3   10.76    2.32
  -2 -16  -3    7.47    3.73
  -2 -16  -3   12.25    3.99
   2 -16   3   13.60    1.57
   2 -16   3   10.53    1.58
   2  16  -3    9.60    1.34
  -2  16   3   10.01    1.04
   2  16  -3   10.39    1.08
  -2  16   3   10.11    1.15
  -2 -16  -3   10.06    1.42
  -2  16   3   10.71    4.33
   2 -16   3   12.73    1.63
  -2  16   3   11.98    4.22
  -2 -16  -3    7.36    3.79
   2  16  -3    9.72    1.07
  -2 -16  -3   10.65    1.37
  -2  16   3   10.05    1.23
   2  16  -3    8.43    1.33
   2 -16   3   10.21    1.52
   2 -16  -3   12.89    1.61
  -2  16  -3   10.53    1.10
   2  16   3   10.78    1.13
  -2 -16   3   10.99    1.32
  -2  16  -3   11.37    1.65
   2  16   3   12.94    4.51
   2 -16  -3   10.54    1.64
   2 -16  -3    7.81    3.86
   2 -16  -3    7.51    4.12
   2 -16  -3   10.17    1.21
   2 -16  -3    8.76    1.03
  -2  16  -3   11.14    1.45
   2 -16  -3    6.92    3.68
   2  16   3   12.53    1.14
   2  16   3   10.02    1.22
   2  16   3    9.70    1.48
   2  16   3    9.42    1.10
  -2  16  -3    8.78    1.02
  -2  16  -3   11.61    1.61
  -2 -16   3   10.56    0.92
  -2 -16   3    8.59    1.44
  -2 -16   3   12.02    1.85
   4 -16   3    7.96    1.85
  -4  16   3    6.15    0.95
  -4 -16  -3    4.18    2.08
   4 -16   3    6.28    1.51
   4 -16   3    7.96    1.69
   4  16  -3    6.97    1.41
  -4 -16  -3    6.37    1.71
   4 -16   3    5.94    1.76
  -4  16   3    4.37    1.21
  -4  16   3   11.14    1.79
  -4  16   3    6.33    1.84
   4  16  -3   10.43    1.48
  -4 -16  -3    8.59    3.15
   4 -16   3    7.63    1.52
  -4 -16  -3    9.10    3.08
   4 -16   3    6.29    1.25
   4  16  -3    8.76    1.35
   4 -16  -3    3.11    1.12
   4  16   3    4.96    1.19
   4  16   3    6.78    1.32
  -4  16  -3    7.12    1.67
  -4  16  -3    6.39    1.59
  -4 -16   3    5.23    1.45
  -4 -16   3    8.32    1.74
  -4  16  -3    4.79    1.33
   4 -16  -3    5.09    1.43
   4  16   3    7.86    1.22
   4  16   3    7.72    1.49
   4 -16  -3    4.38    1.73
  -4 -16   3    7.99    2.30
   4  16   3    9.45    1.38
   6  16  -3    1.38    1.56
   6 -16   3    6.14    1.86
  -6 -16  -3    6.45    2.75
  -6 -16  -3    1.50    2.89
  -6 -16  -3    3.88    3.06
   6 -16   3    1.57    1.65
  -6  16   3    3.77    2.17
   6  16  -3    4.81    1.80
  -6  16   3    0.28    2.14
  -6  16   3    4.48    1.86
   6 -16   3    5.83    1.60
   6  16  -3    6.65    1.96
   6 -16   3    5.18    1.55
  -6 -16  -3    4.99    2.41
   6  16   3    6.98    1.70
  -6 -16   3   -1.76    3.24
   6  16   3    0.32    1.35
   6  16   3    2.62    1.78
  -6 -16   3    3.05    1.85
   6  16   3    3.99    1.98
  -6  16  -3    5.09    2.10
   6 -16  -3    2.93    1.94
  -6 -16   3    3.86    2.34
  -6  16  -3    5.51    1.46
  -6 -16   3    9.03    3.16
  -6  16  -3    4.32    1.38
   6 -16  -3    1.71    1.69
   6 -16  -3    4.51    1.82
   6 -16  -3    3.18    2.23
  -1  17   3  112.22    7.39
   1  17  -3  121.74    7.84
  -1 -17  -3  126.12   10.38
  -1 -17  -3  124.42    7.37
   1  17  -3  119.12    7.68
  -1 -17  -3  128.62    8.46
  -1 -17  -3  121.67    9.95
  -1  17   3  111.58   10.09
  -1  17   3  124.34    7.57
  -1  17   3  134.53    9.95
   1  17  -3  125.27    7.71
   1 -17   3  122.37    7.53
   1  17  -3  131.16    7.42
  -1 -17  -3  121.43   10.27
   1  17  -3  126.01    7.41
   1 -17   3  127.78    7.58
   1 -17   3  127.19    7.44
  -1 -17  -3  117.44    8.12
  -1 -17  -3  114.21    7.27
  -1  17   3  133.80   10.66
  -1 -17  -3  131.51    7.77
  -1  17   3  127.73    7.47
   1  17  -3  129.60    7.62
   1 -17   3  117.21    7.66
   1 -17  -3  120.29    7.64
  -1  17  -3  123.86    7.37
  -1 -17   3  117.78    7.20
  -1  17  -3  127.92    8.02
  -1 -17   3  124.87    7.48
   1 -17  -3  127.03    9.94
   1 -17  -3  118.82   10.21
  -1  17  -3  128.95    7.73
  -1 -17   3  113.80    7.51
   1 -17  -3  125.87    8.03
  -1  17  -3  130.02    7.45
  -1  17  -3  126.55    7.77
   1  17   3  124.26    7.60
   1  17   3  138.35    9.94
   1 -17  -3  130.37   10.73
  -1 -17   3  126.40    7.73
  -1 -17   3  121.22    7.53
   1  17   3  124.57    7.42
   1  17   3  127.85    7.39
  -1 -17   3  123.47    7.20
   1  17   3  136.48   10.86
   1  17   3  126.76   10.28
   1 -17  -3  121.17    7.35
   1  17   3  129.09    7.40
  -1 -17   3  130.22    7.89
  -1 -17   3  131.68    8.02
  -3 -17  -3   70.98    9.23
  -3  17   3   74.83    5.22
   3 -17   3   64.03    6.29
  -3  17   3   77.00    4.90
  -3  17   3   72.35    9.51
   3 -17   3   74.21    4.79
  -3 -17  -3   80.47    5.40
   3  17  -3   73.61    5.32
  -3 -17  -3   66.68    8.74
   3  17  -3   77.11    4.80
  -3  17   3   78.14    5.09
  -3  17   3   79.82    5.09
  -3 -17  -3   66.89    9.23
  -3  17   3   56.59    8.81
  -3 -17  -3   83.10    6.96
   3 -17   3   79.80    5.41
  -3 -17  -3   63.89    6.63
   3  17  -3   72.57    5.21
   3 -17   3   80.15    5.29
  -3  17   3   72.50    4.71
   3 -17   3   81.19    5.44
   3  17  -3   81.92    5.00
  -3 -17  -3   78.82    9.53
   3 -17   3   77.86    5.28
  -3 -17  -3   77.79    5.52
  -3  17   3   66.29    9.60
   3 -17   3   68.27    5.30
  -3 -17   3   75.15    4.66
   3  17   3   51.74    8.84
   3  17   3   73.32    5.11
   3 -17  -3   87.89    5.56
   3 -17  -3   75.97    4.96
   3  17   3   78.45    4.83
  -3  17  -3   75.77    5.34
   3  17   3   74.04    4.96
   3  17   3   73.88    5.43
  -3 -17   3   79.28    5.29
  -3  17  -3   82.32    7.12
  -3  17  -3   78.41    4.96
  -3  17  -3   76.58    5.26
   3 -17  -3   60.36    9.40
   3 -17  -3   79.94    5.23
  -3 -17   3   81.47    5.42
  -3  17  -3   91.57    6.97
  -3 -17   3   85.28    6.06
   3  17   3   72.56    4.90
  -3  17  -3   71.32    5.58
   3 -17  -3   63.67    8.58
   3  17   3   45.93    8.64
  -5 -17  -3   29.71    4.13
   5  17  -3   41.10    3.47
  -5  17   3   34.37    3.63
  -5 -17  -3   35.93    5.58
  -5 -17  -3   39.27    5.37
   5 -17   3   40.94    3.12
   5 -17   3   37.93    3.64
   5 -17   3   34.43    3.13
  -5  17   3   33.17    3.40
   5  17  -3   34.17    3.34
  -5  17   3   33.28    4.19
   5  17  -3   28.20    3.22
   5 -17   3   38.23    3.39
  -5 -17  -3   23.43    3.87
   5 -17  -3   34.37    3.55
   5  17   3   33.70    3.55
   5 -17  -3   29.99    3.74
  -5 -17   3   35.63    4.10
  -5 -17   3   32.12    3.53
  -5  17  -3   34.20    3.21
   5  17   3   34.30    3.36
  -5  17  -3   41.14    3.90
  -5  17  -3   33.46    3.26
   5  17   3   40.71    3.47
   5  17   3   37.41    3.31
   5 -17  -3   36.49    3.46
  -5 -17   3   45.57    4.88
   5 -17  -3   31.39    3.50
  -5 -17   3   31.06    4.99
   5  17   3   37.25    4.53
   7 -17   3   13.25    2.11
   7 -17   3   12.72    2.15
   7  17  -3   11.04    2.70
   7  17  -3   10.54    2.43
  -7 -17  -3   16.00    3.46
  -7  17   3   13.77    3.30
  -7 -17  -3   17.45    3.34
   7 -17   3   16.97    2.60
  -7  17   3    4.20    2.87
  -7  17   3   14.01    3.64
   7  17   3   12.81    2.54
   7  17   3   16.04    2.85
  -7  17  -3   11.71    2.08
   7 -17  -3   17.99    3.01
   7  17   3   12.17    2.21
  -7 -17   3   11.95    2.38
  -7  17  -3   12.82    2.22
   7 -17  -3   13.98    2.80
  -7 -17   3   13.83    3.16
  -7 -17   3   13.54    4.28
  -7  17  -3   14.95    3.05
   0 -18  -3   34.84    2.54
   0 -18  -3   33.13    2.74
   0 -18  -3   27.92    5.23
   0  18  -3   31.43    2.50
   0 -18   3   32.15    2.28
   0  18  -3   33.86    2.42
   0 -18   3   32.47    2.36
   0 -18  -3   35.44    4.86
   0  18   3   29.35    2.21
   0  18   3   32.67    2.24
   0  18   3   29.10    4.58
   0 -18  -3   31.77    4.98
   0  18   3   28.21    2.27
   0 -18   3   32.53    2.18
   0  18   3   33.13    5.06
   0  18  -3   34.16    2.80
   0 -18   3   32.96    2.59
   0  18   3   32.42    2.40
   0  18  -3   34.98    2.40
   0 -18   3   31.64    2.16
   0  18  -3   33.93    2.27
   0  18   3   34.87    2.31
   0 -18  -3   28.79    2.90
   0  18   3   33.00    4.77
  -2  18   3   19.16    5.18
   2 -18   3   28.97    2.30
  -2  18   3   27.18    1.96
  -2 -18  -3   28.07    5.36
  -2 -18  -3   22.00    2.25
   2 -18   3   26.25    2.37
  -2  18   3   25.47    2.12
  -2  18   3   24.74    2.08
   2  18  -3   27.05    2.29
   2  18  -3   23.86    1.99
  -2 -18  -3   27.84    5.78
   2 -18   3   28.69    2.37
   2  18  -3   26.37    2.01
   2 -18   3   23.58    2.36
   2 -18   3   24.64    1.68
   2  18  -3   28.63    2.34
  -2 -18  -3   31.86    3.19
  -2  18   3   12.12    4.97
   2 -18   3   25.10    2.37
  -2  18   3   23.27    5.24
  -2 -18  -3   25.87    2.19
   2  18  -3   25.68    1.88
  -2 -18  -3   27.21    3.75
  -2  18   3   26.16    2.16
  -2 -18   3   23.77    2.36
  -2 -18   3   27.80    2.19
   2 -18  -3   27.69    2.45
  -2  18  -3   26.00    2.02
   2 -18  -3   25.45    5.28
  -2 -18   3   24.94    1.73
   2  18   3   27.13    2.03
   2 -18  -3   23.60    5.68
   2  18   3   25.40    2.17
   2 -18  -3   24.45    1.91
   2 -18  -3   26.94    5.24
  -2  18  -3   27.20    2.01
   2  18   3   27.05    2.00
  -2  18  -3   26.05    2.40
  -2 -18   3   29.70    2.81
  -2  18  -3   27.60    2.60
   2 -18  -3   26.71    2.21
   2  18   3   29.16    2.35
   2  18   3   18.00    5.32
   2 -18  -3   25.56    2.38
  -2  18  -3   25.82    2.27
   2  18   3   28.33    2.01
   4  18  -3   15.91    1.87
   4 -18   3   13.20    2.47
  -4 -18  -3   14.02    3.55
  -4 -18  -3   12.77    3.77
  -4  18   3   13.22    1.56
   4 -18   3   15.72    1.82
   4  18  -3   16.16    1.72
  -4  18   3   12.41    2.04
  -4 -18  -3   10.54    2.25
   4  18  -3   13.05    2.05
   4 -18   3   10.09    2.08
  -4  18   3   13.69    2.07
   4 -18   3   12.01    2.32
   4 -18   3   16.26    2.16
  -4  18   3   14.84    2.32
  -4 -18  -3    9.31    2.59
   4 -18   3   13.90    2.07
   4  18   3   16.42    1.80
  -4 -18   3   16.28    3.09
   4  18   3   14.09    2.01
   4 -18  -3   14.74    2.13
  -4 -18   3   18.98    2.61
   4  18   3   16.67    1.92
  -4 -18   3   18.76    2.41
   4  18   3   14.26    1.75
  -4  18  -3   16.83    2.51
   4  18   3   16.54    2.10
  -4  18  -3   14.37    2.03
  -4  18  -3   17.20    2.41
   4 -18  -3   15.96    2.65
   4 -18  -3   13.23    2.03
  -4 -18   3   11.15    2.94
  -6 -18  -3    7.87    3.52
  -6 -18  -3    8.58    3.41
   6  18  -3    4.79    1.99
   6  18  -3    8.39    2.00
  -6 -18  -3    8.93    2.83
   6  18  -3    1.78    1.69
  -6 -18  -3    4.46    2.71
  -6  18   3    4.75    2.38
   6 -18   3    7.72    1.78
  -6  18   3    4.33    2.46
  -6  18   3    5.11    1.88
   6 -18   3    5.46    1.96
   6 -18   3    4.29    1.58
   6 -18   3    9.82    2.03
   6 -18  -3    5.50    2.03
  -6 -18   3    6.54    2.58
   6  18   3    4.49    1.88
  -6 -18   3    6.16    2.01
   6  18   3    5.17    2.06
   6 -18  -3    6.09    2.05
   6 -18  -3    5.18    2.33
  -6  18  -3    6.30    1.44
   6  18   3    7.41    1.65
   6  18   3    6.54    1.84
  -6  18  -3    7.58    1.54
   6 -18  -3   11.18    2.35
  -6  18  -3    8.95    2.70
  -6 -18   3   11.28    3.98
  -6 -18   3    6.28    3.24
   1 -19   3    6.36    1.10
  -1 -19  -3    7.40    1.82
   1 -19   3    6.49    1.04
  -1 -19  -3    1.55    3.65
  -1  19   3    5.66    0.86
  -1 -19  -3   10.12    3.94
  -1  19   3    4.47    1.04
  -1 -19  -3    6.86    0.94
   1  19  -3    6.31    1.22
  -1 -19  -3    7.94    1.19
  -1  19   3    0.28    3.51
  -1  19   3    3.40    3.79
  -1  19   3    0.70    3.72
   1  19  -3    5.44    1.13
  -1  19   3    5.42    0.88
  -1 -19  -3    6.94    0.83
  -1 -19  -3    7.79    1.53
   1  19  -3    4.91    0.90
  -1  19   3    5.74    0.92
   1 -19   3    5.92    0.87
   1  19  -3    5.63    0.84
   1  19  -3    4.81    0.77
  -1 -19  -3    5.78    3.53
   1  19  -3    5.85    1.27
   1 -19  -3    6.41    0.92
  -1 -19   3    6.30    1.33
   1 -19  -3    5.11    3.44
  -1  19  -3    5.34    1.11
  -1 -19   3    3.09    1.04
   1  19   3   13.07    4.08
  -1  19  -3    5.39    1.02
  -1  19  -3    6.65    0.89
   1  19   3    1.45    3.67
   1  19   3    6.84    1.06
   1 -19  -3    5.33    0.93
   1  19   3    6.27    0.91
   1  19   3    3.65    0.72
  -1 -19   3    5.61    0.89
  -1  19  -3    6.06    1.09
   1 -19  -3    7.49    3.77
   1  19   3   14.45    4.25
   1 -19  -3    7.56    1.58
  -1 -19   3    5.27    0.60
   1  19   3    5.74    0.82
   1  19   3    6.78    0.92
  -1 -19   3    5.33    1.23
  -1 -19   3    6.24    0.95
  -1 -19   3    6.59    0.82
   1 -19  -3    7.01    4.02
  -1  19  -3    7.21    0.97
  -1 -19   3    7.42    0.92
   1  19   3    6.31    1.23
  -3 -19  -3   -0.08    6.17
   3 -19   3    4.72    0.91
  -3  19   3    4.45    0.80
   3  19  -3    3.39    1.11
   3 -19   3    2.69    1.27
  -3 -19  -3    2.58    2.05
   3  19  -3    4.39    0.84
  -3  19   3    5.32    1.29
  -3  19   3    4.19    1.02
   3 -19   3    5.53    1.54
   3 -19   3    2.40    1.19
  -3 -19  -3    7.41    6.78
  -3 -19  -3    4.20    1.62
  -3 -19  -3    3.08    1.04
  -3  19   3    6.29    1.12
  -3 -19  -3    9.22    7.07
   3 -19   3    4.58    1.33
  -3  19   3    3.33    0.94
   3 -19   3    5.58    1.26
  -3 -19  -3    0.16    6.53
   3  19  -3    3.68    1.15
  -3 -19  -3    1.08    2.33
   3  19   3   -1.00    6.42
  -3  19  -3    3.92    1.15
   3 -19  -3    2.83    0.87
  -3 -19   3    4.69    1.73
  -3 -19   3    3.61    1.32
   3  19   3    1.46    7.11
  -3  19  -3    3.62    0.94
   3  19   3    5.45    1.72
   3  19   3    2.27    0.88
   3  19   3    5.52    0.94
  -3 -19   3    4.32    1.20
   3 -19  -3    2.01    1.24
  -3  19  -3    2.90    1.23
  -3  19  -3    5.86    1.03
   3  19   3    4.82    0.89
   3  19   3    4.55    0.84
   5  19  -3    1.91    1.47
   5 -19   3    2.92    1.56
  -5  19   3    2.34    1.49
  -5 -19  -3    0.59    2.10
   5 -19   3    2.03    1.82
   5  19  -3    2.94    1.29
   5 -19   3    0.76    1.13
   5 -19   3    3.87    1.21
  -5  19   3    3.80    1.99
  -5 -19  -3    3.29    3.04
   5  19  -3    0.62    1.39
  -5 -19  -3   -5.44    2.20
  -5  19   3    5.68    1.79
  -5 -19  -3    4.20    2.88
   5 -19  -3    2.55    1.31
   5 -19  -3    5.83    2.09
  -5  19  -3    1.39    1.15
   5 -19  -3   -1.30    1.69
  -5 -19   3    3.48    2.72
  -5 -19   3   -0.24    2.19
   5  19   3    1.76    1.23
   5  19   3    0.61    1.46
   5  19   3    2.18    1.46
  -5  19  -3    1.33    1.74
  -5 -19   3    3.32    2.16
  -5  19  -3    3.47    1.33
   5  19   3   -0.71    1.28
  -5 -19   3   -0.12    1.38
  -7  19   3   -0.92    1.97
  -7 -19  -3    2.11    2.94
  -7 -19  -3    2.18    2.97
  -7 -19  -3    2.25    4.80
   7  19  -3    1.09    1.84
   7 -19   3    1.20    2.01
  -7  19   3   -3.47    2.66
   7  19  -3   -1.30    2.32
   7 -19   3    3.41    1.55
   7 -19   3   -0.57    1.52
  -7 -19   3    6.49    2.92
   7  19   3   -0.05    1.65
  -7 -19   3    0.84    2.01
  -7 -19   3    2.22    3.88
   7 -19  -3   -2.45    2.19
   7 -19  -3    0.72    1.79
  -7  19  -3   -2.01    1.41
  -7  19  -3    2.96    2.40
   7  19   3    1.06    1.98
  -7  19  -3   -2.00    1.44
   7  19   3    0.51    1.95
   0 -20  -3    1.24    3.47
   0  20   3   -0.59    0.45
   0  20   3   -0.37    0.38
   0 -20   3    0.73    0.41
   0 -20  -3    0.97    0.70
   0 -20   3   -0.49    0.51
   0 -20  -3    1.10    3.50
   0 -20   3    0.11    0.51
   0 -20   3    0.42    0.75
   0  20   3    0.33    0.61
   0  20  -3   -0.04    0.51
   0  20   3    3.48    3.38
   0 -20  -3   -4.07    3.80
   0  20   3    0.13    0.44
   0  20   3   -3.75    3.30
   0  20  -3    0.11    0.37
   0  20  -3   -0.74    0.55
   0 -20   3    0.04    0.48
   0  20  -3   -0.51    0.44
   0  20  -3   -0.13    0.92
   0  20   3   -0.16    0.64
   0 -20  -3   -0.03    0.49
   0 -20  -3    0.74    1.09
   0  20   3   -3.19    3.64
  -2 -20  -3   -0.25    0.80
   2  20  -3    0.79    3.83
   2 -20   3    0.77    0.90
  -2 -20  -3    2.56    4.86
  -2  20   3   -0.29    0.69
   2 -20   3    1.70    0.95
  -2  20   3    2.73    4.77
  -2  20   3    0.66    0.67
  -2  20   3    0.69    0.62
   2  20  -3   -0.22    0.68
   2 -20   3   -0.19    0.73
  -2  20   3   -0.26    0.46
   2 -20   3   -0.16    0.99
  -2 -20  -3   -1.29    1.56
   2  20  -3   -0.07    0.94
  -2 -20  -3    1.26    1.51
  -2 -20  -3   -3.32    4.58
  -2  20   3   -1.36    4.76
  -2  20   3    2.08    4.93
  -2 -20  -3    0.28    0.70
   2  20  -3   -0.14    0.63
   2  20  -3   -0.11    0.44
   2 -20   3   -0.32    0.90
  -2 -20  -3    0.11    0.71
   2  20  -3   -0.32    0.57
  -2  20  -3   -0.12    0.50
   2  20   3    9.86    5.05
  -2  20  -3    0.09    0.63
   2 -20  -3    0.07    0.56
  -2 -20   3   -0.11    0.90
   2  20   3    0.59    1.15
  -2  20  -3   -0.49    0.67
   2 -20  -3   -0.12    4.29
   2 -20  -3   -0.42    0.91
   2  20   3   -0.74    0.47
  -2 -20   3    0.76    0.99
  -2  20  -3    0.34    0.57
   2 -20  -3    0.46    0.58
   2  20   3   -0.36    0.43
   2  20   3    0.03    0.56
  -2 -20   3    0.60    0.41
   2  20   3   -0.62    0.51
  -2 -20   3   -0.15    0.66
   2 -20  -3   -3.59    5.22
   2 -20  -3   -7.50    4.32
  -2  20  -3    1.27    0.80
   2 -20  -3   -0.10    0.93
  -4 -20  -3    2.32    2.26
   4 -20   3    2.27    0.99
  -4  20   3   -2.39    0.93
  -4  20   3    1.01    1.55
   4 -20   3   -1.93    1.38
  -4 -20  -3    2.55    1.54
   4 -20   3    1.01    0.97
   4  20  -3    0.25    1.17
   4  20  -3    1.03    0.84
   4 -20   3    1.11    1.62
  -4  20   3   -0.47    0.71
   4 -20   3    0.18    1.48
   4 -20   3   -0.11    1.30
   4  20  -3    0.46    0.90
  -4  20   3    2.12    1.46
  -4  20   3   -0.62    1.02
  -4 -20  -3   -0.06    2.48
  -4 -20  -3   -0.73    2.90
  -4 -20   3    1.21    1.30
   4  20   3    0.29    1.19
  -4  20  -3    0.18    0.93
  -4 -20   3   -1.30    1.50
  -4  20  -3    0.06    0.83
  -4  20  -3   -0.19    1.20
   4  20   3    0.40    1.01
  -4 -20   3    0.77    1.77
  -4 -20   3   -1.76    1.83
   4  20   3   -0.08    0.93
  -4  20  -3   -1.49    1.02
   4 -20  -3   -1.19    1.55
   4 -20  -3   -1.94    1.19
   4  20   3    1.54    1.05
   4 -20  -3    2.05    1.06
  -6  20   3    3.13    2.19
  -6 -20  -3   -0.65    2.50
  -6 -20  -3    0.18    2.57
   6 -20   3    0.26    1.36
  -6 -20  -3    0.51    3.30
  -6 -20  -3    9.50    3.38
  -6  20   3    0.87    1.72
  -6  20   3   -0.75    2.36
   6  20  -3   -0.59    1.68
   6  20  -3    0.59    1.88
   6 -20   3    3.45    1.61
   6 -20   3   -0.86    1.24
   6  20  -3    0.16    1.62
   6 -20   3    3.27    1.84
   6  20   3    0.53    2.05
  -6 -20   3    3.58    2.62
  -6 -20   3    0.33    1.69
  -6 -20   3   -0.22    3.42
  -6  20  -3    1.53    1.25
  -6  20  -3    0.71    1.28
   6 -20  -3    4.11    2.11
  -6 -20   3   -4.92    2.85
   6  20   3    1.90    1.77
  -6  20  -3   -1.78    2.03
   6 -20  -3    0.97    1.81
   6 -20  -3    2.23    1.90
   6 -20  -3    3.07    2.44
   6  20   3    0.42    1.42
   6  20   3    3.40    1.92
  -1  21   3   -0.75    0.54
  -1 -21  -3    1.55    1.22
  -1  21   3   -0.37    0.52
   1 -21   3    0.09    0.51
   1  21  -3   -0.04    0.38
  -1 -21  -3    0.53    0.54
   1  21  -3    0.32    0.55
  -1  21   3    0.21    4.06
  -1 -21  -3   -1.18    0.93
  -1 -21  -3   -0.51    0.60
   1  21  -3   -0.55    0.48
  -1 -21  -3   -0.83    3.88
   1  21  -3    0.50    1.06
  -1 -21  -3   -5.54    3.69
   1 -21   3   -0.60    0.78
  -1  21   3   10.22    5.02
   1  21  -3   -0.79    0.64
   1 -21   3   -0.64    0.77
  -1  21   3   -0.27    0.54
  -1  21   3   -0.60    0.80
  -1  21   3   -4.81    4.00
  -1 -21  -3   -1.61    3.81
   1 -21  -3   -6.99    4.21
   1  21   3   -0.49    0.41
   1 -21  -3    6.44    3.79
   1  21   3    0.12    0.38
   1 -21  -3   -0.78    3.61
   1  21   3    1.22    0.54
  -1  21  -3   -0.30    0.50
  -1 -21   3   -0.11    0.34
   1  21   3    5.41    4.62
  -1 -21   3   -1.46    0.55
  -1  21  -3   -0.22    0.72
  -1 -21   3   -0.11    0.50
  -1 -21   3    0.24    0.52
   1  21   3    5.62    4.34
  -1  21  -3    0.24    0.63
   1  21   3   -0.55    0.52
   1 -21  -3   -0.48    1.08
  -1 -21   3    0.54    0.62
  -1 -21   3    0.84    0.78
  -1  21  -3    0.41    0.47
   1 -21  -3   -0.29    0.50
   1 -21  -3    1.26    0.54
   1  21   3   -0.19    0.58
   1  21   3    0.31    0.92
  -1  21  -3   -0.94    0.59
   3 -21   3    1.32    1.33
  -3  21   3   -0.71    1.15
   3  21  -3    0.33    0.58
  -3 -21  -3    1.85    1.41
   3 -21   3    0.19    1.19
   3 -21   3    1.29    0.99
  -3 -21  -3    0.68    0.90
   3  21  -3    0.62    0.91
   3 -21   3   -0.25    0.67
  -3 -21  -3   -4.56    2.25
  -3  21   3    0.99    0.94
  -3  21   3    0.45    0.79
   3 -21   3    0.97    1.17
  -3  21   3   -0.89    0.57
   3 -21   3    1.01    1.29
   3  21  -3   -0.12    0.89
  -3 -21  -3    1.93    2.29
   3  21   3    0.18    0.79
   3  21   3    0.07    0.68
  -3 -21   3   -0.33    1.10
  -3  21  -3    0.13    0.70
   3  21   3   -1.08    0.73
  -3 -21   3    0.09    1.01
  -3  21  -3    0.30    0.97
  -3  21  -3    0.29    0.98
   3 -21  -3    0.01    0.73
  -3 -21   3    1.39    1.62
   3 -21  -3   -0.52    0.64
   3 -21  -3    1.54    1.24
  -3  21  -3   -0.51    0.76
   3  21   3   -0.66    0.61
   5  21  -3   -0.04    1.29
   5 -21   3    0.02    1.46
  -5  21   3    0.10    1.70
  -5 -21  -3   -2.73    2.18
  -5  21   3   -0.21    1.47
  -5  21   3    4.69    2.09
  -5 -21  -3   -0.71    2.99
   5  21  -3   -2.05    1.41
   5  21  -3   -1.17    1.44
  -5 -21  -3    0.11    3.04
  -5 -21  -3    1.57    2.70
   5 -21   3    0.73    1.16
   5 -21   3    0.82    1.16
   5 -21   3    0.84    1.83
   5  21   3   -2.34    1.46
  -5  21  -3    1.76    1.13
   5 -21  -3    0.18    2.06
  -5 -21   3    0.26    2.20
  -5 -21   3    0.17    1.49
  -5  21  -3    0.42    1.08
   5 -21  -3    0.47    1.43
  -5  21  -3    0.75    1.61
  -5 -21   3   -1.99    2.74
   5 -21  -3    3.10    2.11
   5  21   3    0.55    1.28
   5  21   3    0.77    1.42
  -5 -21   3    0.65    2.51
  -7 -21  -3    0.25    2.78
  -7  21   3    2.16    3.06
  -7  21   3   -1.45    1.97
   7  21  -3   -3.43    1.82
  -7 -21  -3    9.24    5.00
   7 -21   3   -1.92    1.51
   7  21  -3    0.29    2.38
   7 -21   3   -1.83    2.08
   7 -21   3   -1.07    1.53
  -7 -21  -3   -3.85    2.68
  -7 -21   3    2.16    1.99
  -7 -21   3    1.46    2.98
  -7  21  -3   -1.62    1.53
   7 -21  -3   -4.09    2.21
   7  21   3    0.36    2.19
  -7  21  -3    2.63    2.59
   7  21   3    1.14    1.71
  -7 -21   3   -0.10    3.96
  -7  21  -3    0.05    1.57
   7 -21  -3   -0.49    1.76
   0 -22  -3    0.53    0.51
   0  22   3   -0.73    4.04
   0 -22   3   -0.10    0.42
   0  22   3   -0.51    0.53
   0 -22   3    0.77    0.57
   0  22   3   -0.87    0.38
   0 -22   3    0.27    0.83
   0  22  -3    0.28    0.56
   0 -22   3   -0.87    0.51
   0  22   3    0.46    0.70
   0  22   3   -5.75    4.00
   0 -22  -3   -7.03    3.75
   0  22  -3    0.04    0.63
   0 -22  -3   -4.41    3.66
   0  22   3   -0.76    0.51
   0  22   3   -1.55    4.26
   0 -22  -3   -0.46    1.09
   0  22  -3   -0.24    0.90
   0 -22  -3   -5.24    4.27
   0 -22   3   -0.26    0.59
   0 -22  -3   -0.01    0.82
   0  22   3    0.00    0.56
   0  22  -3   -0.52    0.51
   0  22  -3    0.86    0.48
  -2 -22  -3    0.54    5.17
  -2  22   3    0.37    0.72
   2 -22   3    0.45    1.05
   2 -22   3   -0.49    1.02
   2  22  -3   -0.35    0.81
   2 -22   3    0.22    0.85
   2 -22   3   -1.00    0.97
   2  22  -3   -0.31    0.73
  -2 -22  -3   -4.92    5.14
  -2 -22  -3    0.05    1.25
   2 -22   3    1.32    1.09
   2 -22   3    0.31    1.03
  -2 -22  -3   -0.13    0.68
  -2  22   3   -0.40    0.53
  -2 -22  -3   -0.92    0.84
  -2 -22  -3   -0.07    0.68
   2  22  -3   -1.09    3.67
   2  22  -3   -0.26    0.69
  -2 -22  -3   -1.99    1.80
   2  22  -3    0.77    1.11
  -2  22   3    0.55    0.64
   2  22  -3    0.11    0.51
  -2  22   3    1.09    0.91
  -2 -22   3   -2.41    3.05
  -2  22  -3   -0.27    0.71
   2  22   3    0.16    0.54
  -2 -22   3    0.10    0.77
  -2 -22   3   -1.54    1.06
   2 -22  -3    0.57    1.10
  -2 -22   3   -0.51    0.83
  -2  22  -3    0.15    0.70
  -2  22  -3   -0.04    0.66
   2  22   3   -0.17    0.50
   2  22   3    0.23    0.59
   2 -22  -3   -0.28    0.58
   2 -22  -3   -0.46    0.91
   2  22   3    0.20    5.66
   2 -22  -3    0.69    0.66
  -2 -22   3    4.15    3.11
   2  22   3   -0.03    0.65
   2  22   3   -1.39    1.41
  -2  22  -3    0.78    0.62
  -2  22  -3   -0.70    0.88
  -4  22   3    0.51    1.45
   4 -22   3   -0.87    1.66
   4 -22   3    0.61    1.53
  -4 -22  -3    1.30    2.93
  -4 -22  -3   -1.08    2.26
   4 -22   3    0.38    1.12
   4  22  -3    2.48    1.30
  -4  22   3    0.30    1.25
  -4  22   3   -0.86    0.80
  -4  22   3   -0.76    1.09
   4 -22   3   -0.61    1.53
   4 -22   3   -0.46    1.66
  -4  22   3    0.37    1.80
  -4 -22  -3   -0.17    1.47
  -4 -22  -3   -4.96    2.76
   4 -22   3   -0.74    0.93
   4  22  -3    1.15    0.95
  -4  22  -3   -0.52    1.01
   4 -22  -3    0.13    1.24
  -4 -22   3   -3.06    1.65
  -4  22  -3    1.07    1.25
   4  22   3   -0.08    0.96
   4  22   3    1.40    0.96
   4 -22  -3   -2.41    1.52
  -4 -22   3    1.77    2.21
  -4  22  -3    0.94    1.13
  -4 -22   3    1.69    2.04
  -4  22  -3    0.33    0.97
   4 -22  -3    1.94    1.14
  -4 -22   3    3.01    1.51
   4  22   3   -1.15    1.06
  -6 -22  -3    4.27    2.91
   6 -22   3    1.16    1.93
   6 -22   3    1.76    1.44
  -6 -22  -3   -1.63    2.65
  -6 -22  -3    2.16    3.48
  -6  22   3    1.26    2.73
  -6  22   3    2.63    1.85
   6  22  -3   -1.85    1.87
   6  22  -3    1.49    2.29
  -6  22   3   -1.99    2.37
   6 -22   3    2.37    1.53
   6  22  -3   -1.03    1.62
   6 -22  -3    1.29    1.79
  -6 -22   3   -1.07    1.73
  -6  22  -3    0.39    2.19
   6  22   3    1.67    1.61
   6 -22  -3   -0.42    2.01
  -6  22  -3    0.22    1.38
   6 -22  -3    1.18    2.20
  -6 -22   3    2.18    3.09
  -6  22  -3   -0.13    1.27
   6 -22  -3   -2.25    2.45
  -6 -22   3   -2.70    2.42
   6  22   3   -0.49    2.20
  -1  23   3    7.60    1.32
   1  23  -3    8.53    1.10
  -1 -23  -3   -2.14    4.81
  -1  23   3    7.69    1.22
   1  23  -3    8.65    1.32
  -1 -23  -3   12.07    1.57
  -1  23   3   13.87    5.26
  -1  23   3    6.50    1.08
   1 -23   3    9.48    1.56
  -1 -23  -3    1.52    4.46
  -1  23   3   13.29    5.41
   1  23  -3    9.73    1.30
   1  23  -3    7.47    1.53
   1  23  -3    9.91    1.10
   1 -23   3   10.99    1.19
   1 -23   3    8.15    1.32
  -1 -23  -3    9.61    2.09
  -1 -23  -3   -0.53    4.87
  -1  23   3    9.94    1.20
  -1  23   3    2.89    4.95
  -1  23   3    8.06    1.11
  -1 -23  -3    8.76    1.15
  -1 -23  -3    9.58    1.62
  -1  23  -3    7.67    1.14
  -1 -23   3    8.13    0.80
   1 -23  -3    7.11    5.20
   1  23   3   10.27    1.11
   1 -23  -3    8.98    1.21
  -1  23  -3    9.00    1.03
  -1 -23   3    7.91    1.54
   1 -23  -3    7.00    4.47
   1  23   3    5.82    5.32
   1  23   3    8.14    1.08
   1  23   3    8.04    1.60
  -1  23  -3    8.83    1.36
  -1 -23   3    9.58    1.36
   1 -23  -3    9.18    1.87
  -1 -23   3    8.71    1.02
   1  23   3   10.18    1.29
   1 -23  -3    6.45    1.10
  -1  23  -3    7.49    1.50
  -1  23  -3    8.74    1.42
   1 -23  -3    2.75    4.61
  -1 -23   3    7.89    0.87
   1  23   3    9.18    1.11
   1  23   3   10.43    4.95
  -1 -23   3    7.72    1.13
   1  23   3    7.88    1.02
   1  23   3   12.97    5.02
   3  23  -3    6.32    1.43
  -3 -23  -3    7.81    1.83
   3 -23   3    4.94    1.54
   3  23  -3    5.43    1.03
  -3  23   3    4.31    1.13
  -3 -23  -3    6.42    1.43
   3  23  -3    8.47    1.54
   3 -23   3    7.00    0.92
  -3  23   3    3.91    1.30
  -3 -23  -3   10.20    2.99
   3 -23   3    6.19    1.59
  -3  23   3    5.79    1.67
  -3 -23  -3    0.83    2.98
  -3  23   3    6.97    1.05
   3 -23   3    7.02    1.54
   3 -23   3    6.72    1.74
   3 -23   3    5.72    1.84
   3  23   3    7.02    1.31
  -3 -23   3    4.86    1.45
   3  23   3    6.45    1.22
  -3  23  -3    6.52    1.42
   3 -23  -3    7.60    1.61
  -3  23  -3    3.49    1.50
  -3 -23   3    5.77    2.14
   3  23   3    5.66    1.15
  -3  23  -3    6.29    1.49
  -3  23  -3    6.36    1.26
  -3 -23   3    9.77    1.61
   3  23   3    4.53    1.15
  -3 -23   3    6.87    2.18
   3 -23  -3    5.75    1.25
   3 -23  -3    6.69    1.24
   5  23  -3    1.67    1.63
  -5  23   3    2.11    1.67
  -5  23   3    1.58    2.37
   5 -23   3    4.99    1.45
  -5 -23  -3    1.53    2.29
   5 -23   3    1.24    2.03
  -5  23   3    2.29    2.08
  -5 -23  -3    5.70    3.59
   5  23  -3    3.71    1.40
   5 -23   3    5.60    2.04
   5 -23   3    2.06    1.41
  -5 -23  -3    3.42    2.94
  -5 -23  -3    2.80    3.58
   5 -23  -3    3.14    2.14
   5  23   3    1.89    1.45
   5  23   3    1.06    1.36
  -5 -23   3    5.38    2.94
   5  23   3    3.98    1.92
  -5 -23   3    0.69    2.48
   5 -23  -3    7.20    2.57
  -5  23  -3    3.60    1.49
  -5  23  -3    1.81    1.25
  -5 -23   3    4.92    1.85
  -5  23  -3    2.73    1.95
   5 -23  -3    1.96    1.57
  -5 -23   3    0.69    3.33
   0  24  -3   38.02    2.79
   0 -24   3   40.43    2.81
   0 -24   3   38.16    2.58
   0  24  -3   40.66    2.70
   0 -24   3   33.44    2.63
   0  24   3   26.04    6.30
   0 -24   3   42.95    3.39
   0  24  -3   33.86    2.89
   0  24   3   37.51    2.81
   0  24   3   36.20    2.61
   0  24  -3   37.43    2.84
   0  24   3   34.59    2.67
   0 -24  -3   31.90    6.50
   0  24  -3   42.74    3.42
   0  24   3   33.82    6.26
   0 -24  -3   22.19    5.28
   0 -24  -3   35.31    2.88
   0 -24  -3   36.03    3.53
   0  24   3   27.51    5.97
   0 -24   3   34.72    2.40
   0 -24  -3   40.56    3.20
   0 -24  -3   35.22    6.10
  -2 -24  -3   34.34    4.60
  -2 -24  -3   30.41    2.51
   2  24  -3   29.65    2.79
  -2 -24  -3   28.86    2.70
   2  24  -3   24.92    4.92
  -2  24   3   27.12    2.54
   2 -24   3   25.54    2.79
   2 -24   3   22.81    2.78
   2 -24   3   36.04    2.89
  -2 -24  -3   30.29    3.63
   2 -24   3   30.87    2.67
   2  24  -3   27.54    2.35
  -2  24   3   24.11    2.63
  -2  24   3   35.94    2.48
   2 -24   3   32.68    2.99
   2  24  -3   32.73    2.77
   2  24  -3   34.75    2.78
   2 -24   3   30.94    2.84
  -2  24   3   27.86    2.52
   2  24   3   32.02    2.44
  -2  24  -3   25.92    2.77
  -2 -24   3   29.64    4.47
  -2 -24   3   32.44    4.33
  -2 -24   3   30.67    2.46
  -2  24  -3   32.79    2.48
  -2 -24   3   31.77    2.64
  -2 -24   3   26.83    4.22
  -2  24  -3   31.15    2.48
  -2 -24   3   29.35    3.42
   2  24   3   30.75    2.43
   2 -24  -3   32.01    2.95
   2 -24  -3   30.18    2.43
   2  24   3   30.50    2.59
  -2  24  -3   32.58    2.67
   2  24   3   32.98    2.35
   2 -24  -3   31.62    2.94
  -2  24  -3   36.50    3.26
   2 -24  -3   30.28    2.62
  -4 -24  -3   11.82    3.74
  -4 -24  -3   18.76    2.98
  -4  24   3   20.65    2.01
  -4  24   3   13.15    2.59
   4 -24   3   16.65    1.87
   4 -24   3   18.04    2.55
  -4 -24  -3   14.26    4.48
   4 -24   3   19.80    3.13
   4 -24   3   18.82    2.44
  -4  24   3   15.47    2.55
   4  24  -3   18.51    2.08
   4 -24   3   16.41    2.47
  -4 -24  -3    7.00    3.00
  -4  24   3   15.80    2.38
   4  24  -3   18.94    2.59
  -4  24   3   20.84    3.66
   4 -24  -3   14.88    2.23
   4  24   3   24.31    2.37
   4  24   3   18.26    2.24
  -4 -24   3   18.04    2.68
   4 -24  -3   13.03    2.78
  -4 -24   3   18.49    3.73
   4 -24  -3   17.72    2.46
   4  24   3   21.95    2.77
  -4  24  -3   22.08    2.36
  -4  24  -3   17.99    2.44
  -4 -24   3   19.90    3.00
  -4  24  -3   19.88    2.73
  -4 -24   3   16.14    3.67
  -4  24  -3   15.92    2.62
  -6 -24  -3   10.49    3.41
   6 -24   3    9.19    1.91
   6 -24   3   11.31    1.87
   6 -24   3    5.95    2.50
  -6 -24  -3   11.03    3.86
   6  24  -3    7.11    2.12
  -6 -24  -3   13.63    3.47
  -6  24   3    6.46    3.04
  -6  24   3    5.92    2.14
  -6 -24   3   10.57    2.35
  -6 -24   3   12.28    3.05
   6 -24  -3   10.30    2.35
  -6  24  -3    8.67    1.88
   6 -24  -3    7.43    2.74
   6  24   3    5.63    1.92
  -6  24  -3    6.56    1.79
   6 -24  -3    4.74    2.03
  -6  24  -3   10.29    2.80
  -6 -24   3    6.89    3.76
   6  24   3    7.29    2.87
  -1 -25  -3    5.45    2.03
  -1  25   3    6.34    1.26
   1 -25   3    3.79    1.99
  -1 -25  -3    4.92    1.45
   1  25  -3    3.44    0.98
   1 -25   3    3.80    1.21
   1  25  -3    2.92    0.80
   1  25  -3    3.34    1.36
  -1 -25  -3    4.75    1.06
  -1 -25  -3    3.78    0.88
   1 -25   3    4.60    0.90
  -1  25   3    5.27    0.86
   1 -25   3    4.78    1.23
   1 -25   3    6.32    1.54
   1  25  -3    3.54    0.75
  -1  25   3    3.84    0.91
  -1  25   3    4.17    0.95
   1  25  -3    3.73    1.09
  -1 -25   3    3.87    2.44
  -1  25  -3    4.05    0.84
  -1  25  -3    3.59    1.05
  -1 -25   3    3.13    1.49
   1  25   3    2.53    0.79
   1  25   3    3.09    0.76
  -1 -25   3    3.77    0.99
   1  25   3    3.52    1.02
   1 -25  -3    2.75    1.45
  -1  25  -3    3.51    1.00
   1 -25  -3    3.24    0.85
  -1  25  -3    3.47    0.93
  -1 -25   3    2.56    0.59
  -1 -25   3    4.34    0.91
  -1 -25   3    4.22    0.90
   1  25   3    3.07    0.82
   1 -25  -3    3.04    0.80
  -1  25  -3    2.13    1.10
   3 -25   3    1.02    1.29
  -3  25   3    2.30    1.10
  -3 -25  -3    2.76    2.61
   3  25  -3    3.26    0.95
  -3 -25  -3    1.53    1.64
  -3  25   3    3.64    1.91
   3  25  -3    1.98    1.25
   3 -25   3    4.33    1.92
  -3  25   3    1.29    0.74
   3 -25   3    3.36    1.57
  -3 -25  -3    1.08    2.88
  -3  25   3    3.06    1.37
  -3 -25  -3    2.29    1.28
   3 -25   3    4.12    1.48
   3 -25   3    2.33    1.61
  -3  25  -3   -1.13    1.04
  -3  25  -3    4.21    1.36
   3  25   3    1.08    0.77
  -3  25  -3    5.25    1.11
   3 -25  -3    2.99    1.09
   3  25   3    2.78    0.93
  -3 -25   3    2.07    2.16
   3 -25  -3    2.62    1.53
   3 -25  -3    0.46    0.74
  -3 -25   3   -0.74    1.41
  -3 -25   3    5.94    2.39
  -3 -25   3    3.53    1.42
  -3  25  -3    1.91    1.07
   3  25   3    0.79    1.06
  -5 -25  -3   -3.01    3.44
   5 -25   3    0.05    1.34
   5  25  -3    1.95    1.44
  -5 -25  -3    8.76    4.13
   5 -25   3    2.73    2.20
   5  25  -3    2.21    1.80
  -5 -25  -3   -1.46    3.11
  -5  25   3   -3.40    2.04
  -5 -25  -3   -0.99    2.31
  -5  25   3    1.83    1.75
   5 -25   3    3.70    1.58
  -5  25   3    3.08    2.60
   5 -25   3    0.17    1.90
  -5 -25   3   -1.43    3.19
  -5 -25   3    1.65    1.84
   5  25   3   -0.78    1.37
  -5  25  -3    2.87    2.15
   5  25   3    0.96    1.56
  -5  25  -3    1.67    1.23
  -5 -25   3   -3.54    2.38
  -5 -25   3    3.40    2.89
   5 -25  -3    3.93    2.34
   5  25   3    1.96    1.73
   5 -25  -3    2.91    1.48
  -5  25  -3   -0.49    1.21
   5 -25  -3    2.86    2.10
   0 -26   3    0.24    0.52
   0 -26  -3   -1.03    0.64
   0  26   3   -0.59    0.71
   0 -26   3    0.40    0.78
   0 -26  -3    0.14    1.43
   0 -26   3    0.83    0.78
   0 -26   3    1.58    0.72
   0  26  -3    0.78    0.73
   0  26  -3    0.16    1.09
   0  26  -3   -0.13    0.79
   0  26  -3    0.83    0.74
   0  26   3    0.20    0.70
   0 -26   3    2.35    2.15
   0  26   3    1.69    0.86
   0  26  -3   -0.18    0.51
   0 -26   3    0.41    1.44
  -2 -26  -3    1.27    0.83
   2  26  -3   -0.03    1.54
  -2  26   3    0.76    1.02
   2  26  -3    1.44    0.91
  -2 -26  -3   -0.18    1.58
  -2 -26  -3    2.01    1.00
   2 -26   3   -1.52    1.39
   2 -26   3    1.02    1.06
   2  26  -3   -0.19    0.64
   2 -26   3   -1.39    1.27
  -2  26   3    1.40    0.81
   2  26  -3    0.60    0.98
   2 -26   3    2.26    1.27
  -2  26   3    0.39    0.64
  -2 -26  -3    0.35    2.12
   2 -26  -3   -0.08    0.81
  -2 -26   3   -1.01    2.11
  -2 -26   3    0.88    1.07
  -2  26  -3   -0.25    0.85
   2 -26  -3    1.18    0.81
  -2  26  -3    1.21    0.91
   2 -26  -3    1.72    1.30
  -2 -26   3   -0.05    0.75
  -2  26  -3    0.77    0.92
   2 -26  -3    1.95    1.11
   2  26   3   -1.33    0.84
  -2  26  -3    0.44    1.15
   2  26   3    1.20    0.72
   2  26   3   -0.06    0.66
  -2  26  -3    0.57    0.72
   2  26   3   -0.05    0.80
  -2 -26   3   -0.02    1.66
   4 -26   3    1.67    1.44
  -4  26   3    3.74    1.07
   4  26  -3   -0.69    0.92
   4 -26   3   -0.47    1.69
  -4 -26  -3   -2.29    2.77
   4 -26   3    0.29    1.15
  -4 -26  -3    2.93    3.43
  -4 -26  -3   -1.20    1.72
   4  26  -3    1.76    1.66
   4 -26   3    1.88    2.03
  -4  26   3    0.97    1.52
  -4 -26  -3    0.99    3.28
  -4  26   3    0.60    1.34
   4  26   3    0.03    1.02
  -4  26  -3   -0.79    1.13
  -4 -26   3   -1.00    1.56
   4 -26  -3   -1.35    1.30
  -4  26  -3    0.46    1.20
  -4 -26   3    1.24    2.21
   4  26   3    1.55    1.16
  -4  26  -3    1.04    1.62
   4 -26  -3   -0.51    1.42
   4  26   3    1.56    1.35
  -4 -26   3    1.17    2.38
  -4  26  -3    1.75    1.30
   4 -26  -3    0.29    1.13
  -4 -26   3   -2.07    2.13
   4 -26  -3    1.05    1.89
   6 -26   3    3.01    2.38
  -6 -26  -3   -0.46    2.79
  -6 -26  -3    6.43    3.97
  -6 -26  -3   -0.37    3.40
   6  26  -3   -3.16    1.71
   6 -26   3   -2.79    1.50
  -6  26   3    1.66    1.93
   6 -26   3    3.15    1.67
  -6 -26   3   -2.00    3.42
  -6 -26   3    1.52    2.13
   6 -26  -3    2.93    2.62
  -6  26  -3   -0.95    1.35
   6  26   3   -2.38    2.49
  -6  26  -3    1.27    1.54
  -6  26  -3   -1.71    2.57
   6 -26  -3    1.22    1.93
   6  26   3    1.25    1.75
  -6 -26   3   -1.49    2.93
   6 -26  -3    3.47    2.29
   1 -27   3   90.80    5.85
  -1 -27  -3   93.10    7.01
   1  27  -3   96.08    5.70
  -1  27   3   95.71    5.74
   1  27  -3   81.16    6.25
  -1 -27  -3   98.14    6.53
  -1  27   3   90.59    5.68
  -1  27   3   92.87    5.80
  -1 -27  -3   98.62    6.12
   1  27  -3   87.76    5.51
   1 -27   3   86.01    5.75
   1  27  -3   94.46    5.89
   1 -27   3   72.13    5.46
   1 -27   3   91.19    5.52
  -1  27   3   83.80    5.83
   1  27  -3   92.62    5.95
   1 -27   3   90.49    6.43
  -1 -27  -3   89.76    5.69
   1 -27   3   75.22    6.33
  -1 -27   3   74.02    5.50
   1  27   3   87.71    5.79
   1  27   3   75.94    5.42
  -1  27  -3   93.61    5.68
  -1 -27   3   83.97    5.14
   1 -27  -3   90.91    5.68
  -1 -27   3   85.94    6.80
   1 -27  -3   83.94    6.36
  -1  27  -3   89.95    5.77
  -1 -27   3   87.72    5.51
  -1 -27   3   92.30    5.84
  -1  27  -3   97.18    6.38
   1  27   3   89.88    5.62
   1  27   3   85.06    5.48
  -1  27  -3   89.65    6.03
  -1  27  -3   92.82    5.91
  -3  27   3   56.23    4.47
   3 -27   3   54.42    4.89
  -3  27   3   60.73    4.82
   3  27  -3   60.81    4.35
   3 -27   3   47.43    4.62
  -3  27   3   67.47    5.07
  -3 -27  -3   39.81    6.65
  -3 -27  -3   65.74    4.92
   3 -27   3   63.31    4.95
   3 -27   3   65.16    5.13
   3 -27   3   67.00    4.95
  -3 -27  -3   62.87    6.44
   3  27  -3   61.78    4.76
  -3  27   3   60.39    4.19
   3 -27  -3   62.93    4.68
  -3  27  -3   62.42    4.84
  -3  27  -3   55.64    5.03
   3 -27  -3   56.59    4.87
   3 -27  -3   61.72    4.33
  -3  27  -3   63.53    4.74
  -3 -27   3   68.44    6.37
  -3  27  -3   71.88    4.49
   3  27   3   63.88    4.60
   3  27   3   59.94    4.34
  -3 -27   3   60.52    4.57
  -3 -27   3   57.25    4.80
   3  27   3   62.70    4.33
  -3 -27   3   55.06    5.85
  -5 -27  -3   36.55    6.00
  -5 -27  -3   30.07    4.76
   5 -27   3   35.04    4.14
   5 -27   3   36.67    3.61
   5  27  -3   31.69    3.15
  -5 -27  -3   30.46    5.68
   5 -27   3   37.58    3.98
  -5  27   3   27.38    3.58
  -5 -27  -3   31.40    4.30
   5  27  -3   24.04    3.29
   5  27   3   35.42    3.41
   5  27   3   37.17    4.02
   5 -27  -3   24.34    3.64
   5 -27  -3   32.99    4.49
  -5  27  -3   27.83    3.20
  -5  27  -3   31.11    3.28
   5  27   3   27.78    3.28
  -5 -27   3   17.16    3.77
   5 -27  -3   20.58    3.32
  -5 -27   3   35.72    3.85
  -5 -27   3   31.36    5.72
  -5 -27   3   29.21    4.98
  -5  27  -3   33.98    4.23
   0  28  -3    0.51    0.75
   0 -28   3   -1.68    0.78
   0  28   3    0.16    0.83
   0  28  -3    0.30    0.65
   0 -28   3    5.04    2.45
   0 -28   3   -1.37    1.86
   0 -28   3   -0.75    0.72
   0  28  -3    0.23    0.88
   0  28   3    1.70    0.90
   0  28  -3    1.17    1.21
   0  28   3    0.02    0.81
   0 -28  -3    1.06    0.79
   0  28  -3   -0.27    0.76
   0 -28  -3   -0.28    1.51
  -2 -28  -3   -0.50    0.90
   2  28  -3    0.13    1.04
  -2 -28  -3    1.35    1.63
   2 -28   3    0.41    1.39
   2 -28   3    0.57    1.46
  -2  28   3    0.73    0.71
   2  28  -3    1.31    1.12
  -2  28   3    1.97    1.17
   2 -28   3    0.28    1.18
  -2 -28  -3    0.08    2.35
   2  28  -3   -1.13    1.70
  -2 -28  -3    0.33    0.89
  -2  28   3    0.02    0.98
   2 -28   3   -2.39    1.61
   2  28  -3    0.51    0.68
   2  28   3    1.12    0.75
   2 -28  -3    1.73    0.86
  -2 -28   3    0.23    0.76
   2 -28  -3    0.68    0.87
  -2 -28   3    0.43    1.02
  -2  28  -3    1.17    1.10
  -2  28  -3   -0.60    0.98
   2  28   3    1.37    1.02
  -2 -28   3    3.13    2.13
  -2  28  -3    0.28    0.94
  -2 -28   3    0.43    2.62
   2  28   3   -0.13    0.60
  -2  28  -3   -1.35    1.04
  -2  28  -3   -0.49    0.80
   2 -28  -3   -0.13    1.26
   2 -28  -3   -0.61    1.39
  -4 -28  -3    5.59    3.90
  -4  28   3    2.02    1.17
   4 -28   3   -0.16    1.52
   4 -28   3   -2.22    1.83
  -4  28   3   -0.61    1.65
   4  28  -3   -1.78    1.06
   4  28  -3    1.76    1.67
  -4 -28  -3   -3.40    3.42
  -4 -28  -3    1.25    1.71
  -4  28   3   -0.23    1.48
   4 -28   3    4.26    2.24
   4  28   3    0.06    1.62
  -4  28  -3   -0.29    1.23
  -4  28  -3   -0.58    1.24
  -4  28  -3    0.16    1.71
   4 -28  -3    0.23    1.56
   4  28   3    1.06    1.28
  -4 -28   3    0.29    3.00
  -4 -28   3   -3.93    2.50
   4 -28  -3   -0.12    1.50
  -4  28  -3   -1.70    1.22
  -4 -28   3   -0.08    2.72
   4 -28  -3   -0.58    1.95
  -4 -28   3   -1.23    1.74
   4 -28  -3   -0.55    1.12
   4  28   3   -1.74    1.19
   6 -28   3    1.71    2.55
  -6  28   3    2.49    2.07
  -6 -28  -3   -2.85    3.00
  -6 -28  -3    3.43    4.44
  -6 -28  -3   -1.29    3.73
   6 -28   3    5.37    1.75
   6  28  -3   -1.13    1.81
  -6 -28   3    1.42    3.24
   6  28   3    1.18    2.72
  -6  28  -3    0.54    1.38
   6 -28  -3   -1.39    2.59
  -6 -28   3    0.55    2.20
   6  28   3   -0.27    1.81
  -6  28  -3    5.71    3.36
   6 -28  -3    1.44    2.43
   6 -28  -3    0.67    2.01
  -6  28  -3   -2.52    1.52
   1 -29   3    1.44    0.97
   1  29  -3    0.58    1.00
   1 -29   3    2.48    1.24
  -1 -29  -3    0.55    1.40
  -1  29   3   -0.84    1.12
  -1  29   3    0.88    0.73
  -1 -29  -3   -0.56    0.80
  -1  29   3    0.48    0.92
   1  29  -3   -0.01    0.65
   1  29  -3   -1.01    0.84
  -1 -29  -3    0.54    0.87
   1  29  -3    2.80    1.56
   1  29  -3    0.46    0.92
   1 -29   3    2.04    0.92
  -1  29   3    0.35    1.04
  -1 -29  -3    1.03    1.94
   1 -29   3   -5.82    2.15
   1  29   3   -0.02    0.87
  -1  29  -3    0.54    0.92
  -1 -29   3    0.63    2.86
   1  29   3    0.95    1.02
  -1 -29   3   -2.41    2.08
   1 -29  -3   -1.17    1.55
  -1 -29   3    1.39    0.96
  -1  29  -3    0.66    0.85
   1 -29  -3    0.79    0.74
   1  29   3    0.82    0.68
  -1  29  -3    0.63    1.03
   1 -29  -3    0.44    0.80
  -1  29  -3    0.01    1.19
  -1  29  -3    1.40    0.84
   1  29   3    0.90    1.07
  -3  29   3   -0.33    0.81
   3 -29   3    0.28    1.77
   3  29  -3   -0.32    1.44
   3  29  -3   -0.11    0.83
  -3 -29  -3   -0.17    3.09
  -3 -29  -3    0.38    1.28
  -3  29   3    0.17    1.27
   3 -29   3    0.54    1.45
  -3 -29  -3    2.25    2.92
  -3  29   3    1.27    1.32
   3 -29   3    1.21    1.73
   3 -29   3    3.10    1.77
  -3  29   3    1.53    1.81
  -3 -29   3    0.77    2.53
   3 -29  -3    0.96    0.97
  -3 -29   3    2.87    2.95
   3  29   3    0.44    0.90
  -3  29  -3    1.01    1.42
  -3 -29   3    0.81    1.15
  -3  29  -3   -0.56    1.14
   3 -29  -3   -0.48    1.04
  -3  29  -3    0.91    1.40
   3  29   3   -1.81    1.22
   3 -29  -3    2.07    1.55
   3  29   3   -1.40    0.87
  -3  29  -3    0.18    1.03
   5  29  -3    0.21    1.63
  -5 -29  -3    0.66    3.62
  -5  29   3   -0.51    1.68
  -5 -29  -3   -1.02    2.58
   5 -29   3   -2.48    2.14
   5  29  -3    3.77    2.17
   5 -29   3   -2.51    1.52
   5 -29   3   -1.08    2.45
  -5 -29  -3    5.16    4.42
   5 -29  -3    4.04    2.59
  -5 -29   3   -5.00    3.72
   5  29   3    2.80    1.71
   5  29   3   -0.55    1.93
   5 -29  -3   -0.20    1.63
   5 -29  -3    1.80    2.62
  -5  29  -3   -2.61    2.56
   5 -29  -3   -2.16    2.48
  -5  29  -3   -0.55    1.39
   5  29   3    1.82    2.34
  -5 -29   3    1.21    2.13
  -5 -29   3   -0.04    3.12
  -5  29  -3   -0.57    1.36
   0  30   3   24.30    2.29
   0 -30  -3   21.74    2.34
   0 -30   3   23.83    2.41
   0 -30  -3   22.79    3.32
   0  30  -3   23.53    2.26
   0 -30   3   21.54    2.05
   0  30   3   21.95    2.18
   0  30  -3   24.65    2.12
   0  30   3   22.06    2.33
   0 -30   3   17.24    3.44
   0  30  -3   28.50    2.99
   0  30   3   24.68    2.28
   0  30  -3   22.88    2.45
   0 -30   3   25.54    3.95
   0  30  -3   23.06    2.14
  -2 -30  -3   16.80    2.10
  -2 -30  -3   18.67    3.21
  -2 -30  -3   23.46    4.64
  -2  30   3   13.91    2.01
  -2 -30  -3   20.94    2.45
  -2  30   3   15.93    2.40
   2  30  -3   22.30    2.43
  -2  30   3   15.63    1.87
   2 -30   3   18.38    2.65
   2 -30   3   15.38    2.47
   2  30  -3   17.55    2.46
  -2  30   3   21.00    2.37
   2  30  -3   21.75    2.05
   2 -30   3   22.04    2.36
   2  30   3   20.43    1.96
  -2 -30   3   16.11    3.97
  -2 -30   3   24.72    3.79
  -2 -30   3   18.73    1.78
  -2  30  -3   17.58    2.69
  -2  30  -3   19.05    2.41
   2 -30  -3   18.31    2.18
   2 -30  -3   19.93    2.00
   2 -30  -3   23.00    2.71
   2 -30  -3   16.24    2.41
   2  30   3   18.51    2.22
  -2  30  -3   18.08    2.21
  -2  30  -3   19.12    2.04
  -2  30  -3   19.84    2.56
  -2 -30   3   19.05    2.34
  -4 -30  -3   -0.99    4.24
   4 -30   3    9.84    2.18
  -4  30   3   10.11    1.64
   4 -30   3    7.69    2.45
   4  30  -3    7.52    2.28
   4 -30   3    5.59    2.52
  -4 -30  -3   12.81    5.02
   4  30  -3   10.28    1.82
  -4  30   3   11.94    2.37
  -4 -30  -3    9.41    2.41
   4 -30  -3    7.92    2.19
  -4  30  -3   10.10    2.22
   4  30   3   10.60    1.95
  -4  30  -3   12.20    2.50
  -4 -30   3   10.84    3.91
   4 -30  -3   13.83    2.72
   4  30   3   11.19    1.87
   4 -30  -3   15.60    2.38
   4  30   3   14.16    2.48
  -4 -30   3   11.46    4.03
  -4  30  -3   11.62    2.18
  -4 -30   3   10.33    2.21
   4 -30  -3   10.62    2.06
  -4  30  -3    8.88    2.00
   6 -30   3   11.96    2.97
   6 -30   3   10.08    2.12
  -6  30   3    9.51    2.39
   6  30  -3    5.92    2.21
  -6 -30  -3   10.01    3.62
  -6 -30  -3    3.20    4.17
  -6  30  -3    1.93    1.75
  -6 -30   3    2.67    3.82
  -6 -30   3    5.99    2.72
   6 -30  -3    6.15    2.72
   6 -30  -3    1.76    2.92
   6 -30  -3    3.60    2.19
  -6  30  -3    6.55    1.91
   6  30   3    9.03    3.55
   6  30   3    2.25    2.07
  -1  31   3    2.89    1.41
   1  31  -3    4.67    1.24
  -1 -31  -3    4.70    1.35
  -1  31   3    5.71    1.13
  -1 -31  -3    4.20    1.73
   1 -31   3    4.71    1.54
  -1  31   3    5.23    1.36
   1 -31   3    6.88    1.37
   1  31  -3    2.91    0.90
  -1 -31  -3    3.67    1.21
   1  31  -3    3.10    1.47
  -1  31   3    2.41    1.23
  -1 -31  -3    3.03    2.00
   1  31  -3    4.60    1.14
   1  31  -3    8.10    1.94
  -1  31  -3    4.55    0.87
  -1  31  -3    4.98    1.54
   1  31   3    4.53    1.35
   1 -31  -3    3.47    1.97
  -1  31  -3    3.94    1.30
  -1  31  -3    5.79    1.37
   1 -31  -3    3.72    1.14
  -1 -31   3    6.77    2.99
  -1 -31   3    5.75    1.35
  -1 -31   3    4.73    3.49
   1  31   3    5.56    1.08
   1 -31  -3    4.54    1.10
  -1  31  -3    6.00    1.22
   3 -31   3    1.38    1.96
   3  31  -3    6.54    1.82
  -3 -31  -3    4.21    3.41
   3  31  -3    3.60    1.08
   3 -31   3    2.70    1.83
  -3 -31  -3    0.29    3.69
  -3 -31  -3    2.18    1.52
   3 -31   3    1.45    2.12
   3 -31   3    5.61    2.01
  -3  31   3    4.98    1.20
  -3  31   3    5.18    1.70
   3 -31  -3    3.48    1.24
  -3  31  -3    5.97    1.42
   3  31   3    2.93    1.20
   3 -31  -3    7.44    2.16
  -3 -31   3   10.90    3.29
  -3  31  -3    1.87    1.68
  -3 -31   3    7.31    3.41
   3  31   3    3.84    1.15
   3  31   3    1.59    1.53
   3 -31  -3    5.30    1.42
  -3  31  -3    3.32    1.70
  -3  31  -3    6.47    1.66
  -3 -31   3    4.09    1.30
  -5 -31  -3   -1.64    3.78
  -5  31   3    1.67    1.97
   5  31  -3    0.43    1.56
   5 -31   3    1.96    2.68
   5 -31   3    1.11    1.83
  -5 -31  -3   -1.72    2.69
   5 -31  -3    2.42    2.65
  -5 -31   3   -1.63    3.31
  -5  31  -3   -0.20    2.89
  -5  31  -3    2.35    1.56
  -5 -31   3    3.40    2.14
   5  31   3    3.81    2.62
  -5  31  -3    1.08    1.51
   5 -31  -3    1.31    2.72
   5  31   3    4.35    1.76
   5 -31  -3    1.38    1.71
   0  32  -3    0.21    0.97
   0  32  -3    0.00    0.84
   0  32  -3   -0.19    1.52
   0  32   3    0.22    0.74
   0  32  -3   -0.27    1.01
   0 -32  -3    0.52    0.90
   0  32  -3    1.17    1.22
   0  32   3    1.42    1.43
   0  32   3   -3.29    1.07
   0 -32   3    0.90    2.93
   0  32   3    2.26    1.13
   0 -32  -3    0.74    1.83
   0 -32   3    0.51    1.10
   0 -32   3    2.98    3.24
   0 -32  -3    0.28    0.80
   0 -32   3    0.41    0.88
  -2  32   3   -0.62    1.26
  -2  32   3    0.37    1.56
  -2  32   3    1.07    0.85
   2 -32   3   -1.24    1.68
  -2 -32  -3   -6.12    2.64
   2 -32   3   -1.16    1.58
   2  32  -3   -0.38    1.27
  -2 -32  -3   -1.75    1.02
  -2  32   3    0.06    1.41
  -2 -32  -3   -0.15    2.18
   2  32  -3   -0.12    0.81
   2  32  -3   -0.29    1.43
  -2  32   3    1.44    1.81
  -2 -32  -3    0.52    1.08
   2 -32  -3    1.97    1.49
  -2  32  -3   -0.22    1.27
  -2 -32   3    1.80    3.15
   2 -32  -3    0.50    0.87
  -2 -32   3    0.42    1.20
   2  32   3    1.60    0.82
  -2  32  -3    0.48    1.36
  -2  32  -3    2.33    1.24
  -2 -32   3    0.07    0.87
   2 -32  -3   -0.16    1.78
  -2 -32   3    1.10    3.58
  -2  32  -3   -0.67    0.95
  -2  32  -3   -1.48    1.34
   2  32   3   -0.06    1.32
   2 -32  -3   -0.15    0.98
   4 -32   3    3.79    2.49
  -4  32   3   -1.46    1.68
  -4 -32  -3    6.78    4.54
   4  32  -3    0.93    1.25
   4  32  -3   -0.75    2.00
  -4 -32  -3    0.79    1.85
  -4  32   3    2.33    1.28
   4 -32   3   -2.07    1.87
   4 -32   3    0.39    2.36
  -4 -32  -3    0.07    4.60
  -4  32  -3   -0.67    1.45
  -4 -32   3   -1.14    3.06
  -4 -32   3   -2.45    1.65
   4 -32  -3    2.77    2.20
  -4 -32   3    0.03    3.81
   4 -32  -3   -1.47    1.19
  -4  32  -3    0.99    1.46
   4  32   3   -0.38    1.97
   4  32   3   -0.90    1.27
   4 -32  -3   -0.35    1.76
  -4  32  -3    2.72    2.36
  -4  32  -3    0.68    1.58
   4  32   3   -0.23    1.50
   4 -32  -3   -0.53    1.88
  -1  33   3    1.26    0.86
  -1 -33  -3    1.11    1.84
  -1  33   3    1.29    1.83
   1 -33   3    2.88    1.72
  -1  33   3   -0.24    1.43
  -1 -33  -3   -0.01    1.99
   1  33  -3    3.44    1.49
   1 -33   3    3.15    1.21
   1  33  -3    5.41    2.07
   1  33  -3    1.78    0.93
  -1 -33  -3    3.29    1.24
  -1  33   3    1.00    1.26
   1  33  -3    0.16    1.10
  -1 -33  -3    2.46    1.07
   1 -33  -3    3.88    2.15
   1 -33  -3    3.03    1.13
   1 -33  -3    1.87    0.93
  -1  33  -3    3.23    1.06
   1  33   3    1.38    1.00
  -1 -33   3    9.21    4.08
  -1  33  -3    2.38    1.19
  -1  33  -3    1.77    1.27
  -1  33  -3    0.57    1.35
  -1 -33   3    3.46    1.34
  -1  33  -3    2.60    1.38
   1  33   3    1.85    1.26
  -1 -33   3    2.84    3.68
  -3  33   3    2.90    1.86
  -3 -33  -3   -4.29    2.97
   3 -33   3   -0.24    2.07
   3  33  -3    0.47    1.05
   3 -33   3    4.09    2.23
  -3 -33  -3    2.85    1.54
  -3  33   3    2.22    1.08
   3  33  -3    2.37    1.73
   3 -33   3    2.27    1.97
  -3 -33  -3    0.59    3.52
   3  33   3    0.57    1.07
   3  33   3    0.55    1.12
  -3 -33   3    4.69    3.92
   3 -33  -3    2.63    1.93
  -3  33  -3    1.65    1.71
   3  33   3    1.56    1.74
  -3 -33   3    2.36    1.36
  -3  33  -3    2.16    1.23
   3 -33  -3    0.80    1.32
   3 -33  -3    2.23    1.15
  -3  33  -3    2.70    1.50
  -3  33  -3    0.91    1.81
  -3 -33   3    4.34    3.79
  -5 -33  -3    0.07    2.70
   5 -33   3   -0.16    2.01
  -5  33   3   -1.05    1.94
   5 -33   3    4.70    2.93
   5  33  -3    3.59    1.84
  -5 -33  -3   -0.22    4.22
   5 -33  -3   -3.79    1.66
   5 -33  -3    5.34    2.99
  -5  33  -3    0.68    1.53
   5 -33  -3    4.67    2.94
  -5 -33   3    0.23    2.25
   5  33   3   -2.47    1.74
  -5  33  -3   -0.05    1.59
  -5 -33   3    2.34    3.67
   5  33   3    2.36    3.03
   0  34   3    1.91    1.24
   0  34  -3    2.17    1.43
   0 -34  -3    1.81    1.10
   0  34   3    0.18    0.79
   0  34  -3    0.93    0.88
   0 -34   3    3.24    1.13
   0  34  -3   -1.52    1.04
   0  34  -3    1.11    1.19
   0 -34   3   -0.63    3.09
   0 -34  -3   -1.07    2.01
   0 -34   3    0.35    1.33
   0 -34  -3    0.53    0.95
   0  34   3    2.67    1.42
   0  34  -3    1.26    1.68
  -2 -34  -3   -0.84    1.21
   2  34  -3    1.05    0.89
  -2 -34  -3    0.70    1.22
  -2 -34  -3    6.34    3.46
  -2  34   3   -2.28    2.44
  -2  34   3    1.91    1.01
  -2 -34  -3   -1.24    2.33
   2  34  -3    2.93    1.66
   2  34  -3   -0.42    1.31
  -2  34   3   -0.50    1.78
  -2  34   3    0.63    1.54
   2 -34   3    0.71    1.86
   2 -34   3   -2.43    1.83
  -2  34  -3   -0.39    1.57
   2 -34  -3    1.77    1.03
  -2 -34   3    2.03    1.11
   2 -34  -3    1.74    1.63
  -2  34  -3   -1.17    1.52
  -2 -34   3    1.55    1.48
   2 -34  -3   -1.61    1.12
  -2  34  -3   -0.46    1.25
   2 -34  -3   -1.13    2.03
  -2 -34   3    5.32    4.23
  -2  34  -3    2.30    1.20
   2  34   3    0.47    1.47
   2  34   3    0.58    0.94
  -2 -34   3    5.16    4.07
  -2  34  -3    0.56    1.41
   4  34  -3    1.39    1.39
  -4  34   3   -1.47    1.79
   4  34  -3    1.48    2.26
   4 -34   3    2.65    2.67
  -4 -34  -3   -2.63    4.88
  -4 -34  -3    0.60    1.99
   4 -34   3    3.70    2.86
  -4 -34  -3    4.56    4.38
   4 -34   3    0.86    2.03
  -4  34   3    0.91    1.37
   4 -34  -3    1.32    2.11
   4  34   3   -0.76    1.65
   4 -34  -3   -0.31    1.39
  -4  34  -3    2.77    1.64
  -4 -34   3   -2.04    3.38
  -4  34  -3    0.23    1.54
  -4 -34   3    0.61    1.72
   4 -34  -3   -1.80    2.32
  -4 -34   3   -2.22    4.12
   4  34   3   -0.88    1.30
   4 -34  -3    0.64    2.01
  -4  34  -3    0.32    1.68
   4  34   3   -0.53    2.33
  -1 -35  -3    8.15    1.66
   1  35  -3    4.20    1.85
   1 -35   3    4.27    1.86
  -1  35   3    5.62    2.14
  -1  35   3    7.15    1.42
  -1 -35  -3    4.68    2.67
  -1  35   3    4.03    1.82
   1 -35   3    8.30    1.83
  -1 -35  -3    5.91    1.49
  -1 -35  -3    7.95    2.21
   1  35  -3   10.25    1.79
   1  35  -3    6.93    1.25
   1 -35   3    6.88    1.44
   1  35  -3    4.28    2.18
   1 -35  -3    5.39    1.29
   1 -35  -3    4.57    1.42
  -1 -35   3    8.67    4.89
   1  35   3    4.67    1.79
  -1 -35   3    6.26    4.15
  -1  35  -3    6.41    1.55
  -1  35  -3    6.06    1.96
  -1  35  -3    5.00    1.62
  -1  35  -3    5.62    1.68
   1 -35  -3    9.47    2.62
   1  35   3    5.14    1.35
  -1 -35   3    6.21    1.69
  -1  35  -3    4.36    1.23
   1  35   3    3.53    2.31
  -3 -35  -3    4.87    3.73
   3  35  -3    7.95    2.09
   3 -35   3    4.00    2.22
  -3 -35  -3    6.49    1.82
   3  35  -3    3.78    1.34
  -3 -35  -3    4.51    4.07
   3 -35   3    3.42    2.47
   3 -35   3    0.11    2.59
  -3  35   3    6.39    2.29
  -3  35   3    5.37    1.36
  -3 -35   3    3.39    4.12
   3  35   3    3.87    1.38
  -3  35  -3    4.57    1.72
   3 -35  -3    4.98    1.55
  -3  35  -3    3.67    2.13
   3 -35  -3    4.37    1.47
  -3 -35   3    7.26    4.69
   3 -35  -3    3.62    2.24
  -3  35  -3    5.30    1.38
  -3  35  -3    0.88    1.85
  -3 -35   3    3.07    1.37
   3  35   3   10.40    2.31
   5  35  -3    3.97    1.83
  -5 -35  -3    3.98    4.64
   5 -35   3    3.45    3.10
  -5  35   3    5.14    2.14
   5 -35   3    4.93    2.21
  -5 -35  -3    1.51    2.97
   5 -35  -3   -0.78    3.00
   5 -35  -3   -0.94    1.81
  -5 -35   3   -2.08    2.33
  -5  35  -3   -0.71    1.72
   5 -35  -3   -2.79    3.03
  -5  35  -3    5.12    1.87
   5  35   3    3.10    1.99
  -5 -35   3    3.87    4.13
   0  36  -3   13.65    2.15
   0 -36  -3   17.45    3.15
   0  36  -3   11.71    1.96
   0 -36   3   14.69    2.35
   0  36  -3   15.82    1.83
   0  36  -3    7.27    1.62
   0  36   3   14.64    2.69
   0 -36  -3   12.83    1.91
   0 -36   3   12.66    1.88
   0  36   3    8.01    2.15
   0  36   3   10.09    1.70
   0  36  -3   13.17    2.62
   0 -36  -3    9.44    1.68
   0 -36   3   14.64    3.93
  -2 -36  -3    7.75    2.96
   2  36  -3    9.31    2.03
  -2  36   3    8.82    1.58
  -2 -36  -3    7.98    1.79
   2 -36   3    7.23    2.56
  -2  36   3    8.49    2.35
  -2  36   3   10.51    2.33
   2  36  -3   10.94    1.69
   2 -36   3    9.99    2.03
   2 -36   3   10.29    2.42
  -2 -36  -3    7.37    1.72
  -2 -36  -3    7.62    3.43
  -2  36  -3   11.70    2.12
   2 -36  -3    6.82    1.41
  -2  36  -3   13.13    1.87
  -2  36  -3   15.42    2.26
   2 -36  -3    9.10    2.39
   2  36   3    6.65    2.77
  -2 -36   3   10.78    2.20
  -2 -36   3    9.46    5.21
  -2 -36   3    3.81    4.62
  -2  36  -3   11.17    2.30
   2 -36  -3   11.69    1.97
   2  36   3   13.50    2.13
  -2  36  -3   11.88    2.41
   4 -36   3   11.95    2.64
  -4 -36  -3    6.95    2.49
   4  36  -3    9.27    1.92
  -4  36   3    4.61    2.28
  -4  36   3    5.91    1.63
   4 -36   3    5.55    3.18
  -4 -36  -3    9.52    5.20
  -4  36  -3    8.04    2.09
   4  36   3    4.67    1.74
   4 -36  -3    6.85    2.46
   4 -36  -3    5.29    1.69
  -4 -36   3    7.10    1.92
   4 -36  -3    5.10    2.90
  -4  36  -3    6.54    2.24
  -4  36  -3    4.95    1.94
  -4 -36   3    7.57    4.47
   1 -37   3   22.92    3.21
  -1  37   3   32.16    2.87
  -1 -37  -3   33.58    2.98
   1  37  -3   25.26    3.43
   1 -37   3   33.27    3.08
   1  37  -3   30.54    3.95
  -1  37   3   31.93    3.49
   1  37  -3   33.13    3.31
   1  37  -3   34.98    2.89
  -1 -37  -3   32.51    4.57
   1 -37   3   33.01    3.47
  -1  37   3   24.42    3.70
  -1 -37  -3   30.03    3.15
  -1  37  -3   31.34    3.20
   1 -37  -3   37.62    3.18
   1  37   3   32.13    3.01
  -1 -37   3   27.34    3.33
  -1  37  -3   27.99    3.32
  -1 -37   3   28.63    5.65
  -1  37  -3   29.21    3.53
  -1  37  -3   35.26    3.42
   1 -37  -3   29.51    4.13
  -1  37  -3   39.05    3.08
   1  37   3   25.97    4.02
   3 -37   3   18.34    3.41
  -3  37   3   25.53    3.58
   3  37  -3   22.41    2.51
  -3 -37  -3   19.23    4.72
   3 -37   3   16.06    3.03
  -3  37   3   22.95    2.53
   3 -37   3   14.86    3.42
  -3 -37  -3   21.23    2.99
   3  37  -3   19.88    3.05
  -3 -37  -3   17.05    5.23
  -3 -37   3   23.67    5.88
  -3  37  -3   19.03    2.93
  -3  37  -3   18.81    3.28
  -3  37  -3   22.45    2.63
   3 -37  -3   22.19    2.60
   3 -37  -3   23.21    2.84
   3 -37  -3   20.55    3.46
  -3 -37   3   19.60    2.37
   3  37   3   21.13    2.57
   3  37   3   22.04    2.80
  -3 -37   3   18.25    5.52
   5 -37   3    7.79    3.63
  -5 -37  -3   11.64    5.44
  -5  37   3    8.53    2.43
   5  37  -3   11.17    2.34
   5 -37   3   11.73    2.67
  -5 -37  -3    9.34    3.37
   5  37   3    7.06    2.36
   5 -37  -3    7.08    2.42
  -5 -37   3   13.00    4.81
   5 -37  -3    9.13    3.38
  -5 -37   3    1.36    2.42
  -5  37  -3    6.80    2.13
   5 -37  -3    4.18    3.42
   5  37   3    7.23    2.43
  -5  37  -3   10.17    2.37
   0 -38  -3    6.59    2.82
   0  38  -3   -1.53    2.00
   0 -38   3   -0.74    1.69
   0 -38   3    2.32    1.54
   0  38  -3    2.20    1.50
   0 -38   3  -15.49    4.65
   0  38   3    2.16    1.20
   0  38   3    5.73    2.55
   0  38  -3    1.44    1.00
   0 -38  -3    2.38    1.16
   0  38  -3    1.73    1.60
   0 -38  -3    0.87    1.41
   0  38  -3   -1.67    1.98
  -2  38   3    2.86    1.95
   2  38  -3    2.66    1.27
  -2 -38  -3    5.04    3.21
   2 -38   3   -1.87    2.37
   2 -38   3    0.56    1.81
  -2 -38  -3    0.15    3.55
   2 -38   3    1.19    2.22
  -2 -38  -3    2.98    1.60
  -2  38   3    0.16    1.07
   2  38  -3    3.07    1.89
  -2 -38  -3    3.63    1.69
  -2  38  -3    0.86    1.64
   2 -38  -3    1.93    1.45
   2  38   3    2.93    1.53
   2 -38  -3    2.30    1.22
  -2  38  -3    2.02    1.34
  -2 -38   3   -0.35    4.83
  -2 -38   3   -5.56    5.68
   2 -38  -3    0.90    1.94
  -2  38  -3    0.34    1.81
  -4 -38  -3   -3.58    5.04
   4 -38   3   -1.33    2.41
   4  38  -3    1.71    1.62
  -4  38   3   -2.18    1.50
   4 -38   3   -1.70    3.11
  -4 -38  -3    1.02    2.34
  -4  38   3    5.53    2.21
  -4 -38   3    3.68    1.89
   4 -38  -3    1.35    2.37
  -4  38  -3   -2.03    1.62
   4 -38  -3    0.71    2.78
  -4  38  -3    2.08    1.88
   4  38   3    2.10    1.90
   4 -38  -3    0.51    1.57
  -4  38  -3    1.32    1.96
  -4 -38   3   -4.88    4.48
   4  38   3    2.34    1.67
   1  39  -3   12.95    1.97
   1 -39   3    9.56    2.58
  -1 -39  -3   18.37    3.68
   1 -39   3   14.32    2.19
   1 -39   3   19.64    2.87
   1  39  -3   14.16    2.33
  -1  39   3    7.97    2.36
   1  39  -3   15.81    2.72
  -1 -39  -3   12.67    2.20
   1 -39   3    9.06    2.84
  -1  39   3   18.97    2.29
  -1 -39  -3   12.52    2.11
  -1  39   3   17.85    3.24
   1  39  -3   12.46    3.15
  -1  39  -3   14.56    2.26
  -1  39  -3   16.58    2.49
  -1 -39   3   14.33    5.06
   1 -39  -3   14.72    3.36
  -1  39  -3   13.81    2.58
   1 -39  -3    9.11    1.85
   1  39   3   16.59    2.15
  -1 -39   3   16.16    2.65
   1  39   3   16.58    3.42
  -1  39  -3   20.34    2.22
  -3  39   3   11.53    1.99
   3 -39   3   11.45    2.85
   3 -39   3    7.81    3.07
  -3 -39  -3    5.50    4.65
   3 -39   3    7.33    3.51
  -3  39   3   13.25    2.98
   3  39  -3   11.01    2.07
  -3 -39  -3    5.27    4.81
   3 -39   3   15.83    2.77
  -3 -39  -3    8.85    2.33
  -3  39  -3    8.86    2.01
   3 -39  -3    6.81    1.78
  -3  39  -3    9.26    2.04
  -3 -39   3   -2.96    6.07
   3 -39  -3    5.29    2.68
  -3  39  -3    9.47    2.56
  -3 -39   3   12.58    5.60
   3  39   3   14.34    2.47
   3 -39  -3   10.83    2.27
   0  40  -3   13.55    2.72
   0 -40  -3   17.74    3.73
   0 -40  -3   17.56    2.36
   0 -40   3   15.75    2.27
   0 -40  -3    9.26    1.83
   0  40   3   13.79    3.20
   0  40  -3   11.46    2.26
   0  40  -3   14.34    4.03
   0  40  -3   14.62    2.69
   0 -40   3   13.27    2.74
   0  40   3   11.16    1.92
   0  40  -3   15.13    1.99
   2  40  -3    8.00    3.01
   2 -40   3    4.11    2.89
  -2 -40  -3   12.72    2.36
  -2  40   3   10.02    1.70
   2 -40   3   14.21    2.40
  -2 -40  -3    9.21    2.16
   2  40  -3    6.82    1.61
  -2 -40  -3   11.20    4.27
   2 -40   3    9.28    3.31
  -2  40   3    9.24    2.50
   2 -40  -3   13.95    2.20
  -2 -40   3    5.47    5.62
  -2  40  -3    4.97    2.35
  -2  40  -3   19.10    2.21
   2  40   3   12.93    2.04
   2 -40  -3    9.39    2.48
  -2  40  -3    5.39    2.10
   2 -40  -3   10.23    1.90
   4  40  -3    8.85    2.08
  -4  40   3    4.09    1.82
   4 -40   3    6.14    2.75
  -4 -40  -3   11.05    5.87
  -4  40   3   11.01    2.85
   4 -40   3    2.24    3.54
  -4 -40  -3   11.78    2.94
  -4  40  -3    7.47    2.04
   4 -40  -3   10.35    2.86
   4 -40  -3    5.84    1.99
   4  40   3    4.32    2.24
   4  40   3    6.81    2.03
  -4  40  -3    8.60    2.45
   4 -40  -3    9.85    3.42
  -4 -40   3    6.88    5.61
  -4  40  -3    5.71    2.23
   1 -41   3   -0.37    1.66
  -1  41   3    3.11    2.65
  -1 -41  -3    2.93    3.02
   1 -41   3    0.59    2.10
  -1 -41  -3    1.47    1.58
  -1 -41  -3    1.54    1.35
   1  41  -3    0.32    1.19
   1 -41   3    0.35    2.52
   1  41  -3   -1.39    1.86
  -1  41   3    0.76    1.13
   1  41  -3   -4.26    2.85
   1  41   3    1.80    1.32
  -1 -41   3   -2.76    1.92
  -1  41  -3    1.37    1.66
   1 -41  -3    1.51    4.01
  -1  41  -3    3.32    1.95
  -1  41  -3   -0.79    1.21
  -1 -41   3   -1.72    5.29
   1 -41  -3    1.43    1.41
  -1  41  -3    3.05    1.84
   1 -41  -3   -1.18    1.54
  -3  41   3    2.15    2.31
  -3 -41  -3    0.18    4.82
   3 -41   3   -4.12    2.93
  -3  41   3    0.11    1.36
   3 -41   3   -1.08    2.21
  -3 -41  -3    1.78    1.85
   3 -41   3   -0.03    2.72
   3  41  -3    0.96    1.40
  -3 -41   3   14.57    6.32
  -3  41  -3   -0.15    2.14
  -3  41  -3    0.05    1.73
   3 -41  -3   -7.37    2.48
   3  41   3    1.08    1.83
   3 -41  -3   -0.45    1.94
  -3  41  -3    0.07    1.79
   3 -41  -3   -1.18    1.44
   0 -42  -3    0.73    1.53
   0  42   3    0.64    1.21
   0  42   3   -1.53    2.82
   0  42  -3    1.93    1.30
   0 -42  -3    0.52    1.29
   0  42  -3   -0.06    2.51
   0 -42  -3   -1.68    3.06
   0 -42   3   -1.14    2.11
  -2 -42  -3   -2.17    1.52
  -2  42   3   -4.51    2.41
   2 -42   3    1.23    2.05
  -2  42   3    2.49    1.31
  -2 -42  -3    2.39    1.90
   2 -42   3    0.03    2.41
   2 -42   3    0.15    2.77
   2  42  -3   -1.56    1.29
  -2 -42  -3   -3.89    3.94
  -2 -42   3    2.73    6.45
  -2  42  -3    0.53    1.82
   2 -42  -3   -0.60    2.51
  -2  42  -3    3.00    2.12
   2  42   3    1.20    1.60
   2 -42  -3   -1.59    1.28
  -2  42  -3   -0.79    1.31
   2 -42  -3   -0.51    1.70
   1 -43   3   -5.24    1.92
   1 -43   3    0.06    2.85
   1  43  -3   -0.73    1.20
  -1  43   3    1.84    1.37
  -1  43   3   -2.04    2.89
  -1 -43  -3   -0.45    1.38
   1  43  -3    0.86    3.31
  -1 -43  -3    3.73    3.36
   1 -43   3   -2.03    2.33
  -1 -43  -3   -4.36    1.62
  -1 -43   3    1.28    2.21
  -1  43  -3    2.08    2.20
   1  43   3   -0.63    1.34
  -1  43  -3    0.46    1.27
   1 -43  -3    1.96    1.76
   1 -43  -3    0.83    1.39
  -1  43  -3   -0.18    2.09
  -1 -43   3   -0.95    5.97
   3 -43   3    4.37    3.49
  -3 -43  -3   -0.68    1.94
   3  43  -3    0.98    1.47
  -3  43   3    0.91    2.17
   3 -43   3    1.61    3.10
  -3  43   3    1.72    1.55
   3 -43   3   -4.37    2.27
  -3 -43  -3   -1.39    5.25
   3 -43  -3    5.72    2.86
   3  43   3   -0.58    1.91
  -3  43  -3    0.32    1.81
  -3  43  -3    0.12    1.89
  -3 -43   3    1.17    6.91
  -3  43  -3   -2.14    2.21
   3 -43  -3   -1.96    2.10
   3 -43  -3   -0.85    1.54
   0  44  -3    1.00    2.74
   0  44   3   -1.36    3.11
   0 -44  -3    1.43    1.79
   0 -44   3    2.54    2.42
   0  44  -3    0.39    1.36
   0 -44  -3    0.25    1.42
   0 -44  -3    1.97    3.61
   0  44   3   -0.27    1.31
  -2 -44  -3    1.36    1.76
   2 -44   3   -2.65    3.17
  -2 -44  -3    1.47    2.05
  -2 -44  -3   -1.44    4.37
   2 -44   3    2.00    2.57
   2  44  -3    1.32    1.45
  -2  44   3    1.18    1.45
   2 -44   3    3.15    2.38
   2 -44   3    7.44    3.33
  -2  44   3   -0.95    2.70
   2 -44  -3    2.90    2.82
  -2  44  -3   -1.54    2.02
  -2 -44   3   -4.03    7.00
  -2  44  -3    1.21    1.51
   2  44   3   -0.88    1.78
  -2  44  -3   -0.79    2.34
   2 -44  -3    1.76    1.47
  -1 -45  -3   -4.79    3.62
   1  45  -3    0.22    1.32
   1 -45   3    2.53    3.40
  -1 -45  -3   -0.81    1.52
   1 -45   3   -0.38    2.59
  -1 -45  -3    0.20    1.84
  -1  45   3    2.52    1.39
   1 -45   3   -2.60    2.12
  -1  45   3   -0.18    3.17
  -1 -45   3   -0.21    2.47
  -1  45  -3   -0.79    1.44
   1  45   3   -0.36    1.46
  -1  45  -3   -0.72    2.54
   1 -45  -3    0.16    1.42
   1 -45  -3   -0.35    1.83
  -1  45  -3   -0.66    2.41
   0 -46  -3    4.30    4.24
   0  46  -3   14.71    2.24
   0  46   3   17.28    2.60
   0 -46  -3   20.60    3.02
   0  46  -3    6.40    3.35
   0 -46  -3   15.15    2.40
   0 -46   3   15.91    3.35
  -2  46   3   14.91    3.63
   2 -46   3    8.86    3.01
  -2  46   3   14.17    2.14
  -2 -46  -3   17.97    5.44
  -2 -46  -3    9.38    2.33
   2 -46   3   18.68    3.07
   2 -46   3   14.43    4.08
   2  46  -3   13.51    2.24
  -2  46  -3    6.41    2.63
  -2  46  -3   12.54    2.24
  -2 -46   3   32.07    8.82
   2  46   3   10.52    2.45
   2 -46  -3   13.98    3.10
   2 -46  -3    6.96    1.97
  -2  46  -3    9.28    2.95
   1 -47   3   -2.08    2.49
   1  47  -3   -1.16    1.48
   1 -47   3    2.48    3.84
  -1  47   3   -0.63    1.54
  -1  47   3   -0.40    3.70
  -1 -47  -3   -6.19    4.27
  -1 -47  -3   -0.26    1.71
   1 -47   3    1.04    2.88
  -1 -47  -3    1.57    2.12
   1  47   3    3.08    1.74
  -1  47  -3    0.58    1.58
   1 -47  -3    5.58    3.03
  -1  47  -3   -1.18    2.57
   1 -47  -3   -2.09    1.52
   1 -47  -3   -0.56    2.01
  -1 -47   3    0.93    2.85
   0  48  -3   -2.23    1.58
   0  48  -3   -1.41    3.45
   0  48   3   -0.58    1.45
   0 -48  -3    4.02    2.34
   0 -48  -3    0.16    1.70
   0 -48   3    5.16    3.05
   0   0  -4  360.02   23.41
   0   0  -4  390.55   23.90
   0   0   4  358.87   23.96
   0   0   4  401.72   22.08
   0   0  -4  370.01   23.75
   0   0  -4  415.17   22.32
   0   0   4  374.17   23.70
   0   0  -4  380.44   22.04
   0   0   4  384.43   23.38
   0   0  -4  392.36   22.09
   0   0  -4  392.81   22.21
   0   0   4  406.78   22.07
  -2   0  -4  323.98   18.32
   2   0   4  312.95   17.80
   2   0   4  303.39   17.92
   2   0  -4  299.59   18.02
  -2   0  -4  313.34   19.59
  -2   0  -4  280.91   17.79
  -2   0  -4  313.89   18.63
   2   0   4  283.51   20.03
  -2   0   4  316.09   17.84
  -2   0  -4  285.45   19.78
   2   0  -4  316.34   18.05
   2   0   4  309.17   17.93
  -2   0   4  334.32   18.21
   2   0   4  324.30   17.73
  -2   0  -4  303.25   18.13
   2   0  -4  325.50   17.61
  -2   0   4  314.13   17.96
   4   0   4  164.34   10.14
   4   0   4  166.45   10.11
  -4   0  -4  159.85   11.34
   4   0  -4  145.71    9.79
   4   0  -4  151.54   10.30
  -4   0   4  169.51   10.40
  -4   0   4  169.25   10.33
   4   0   4  164.65   10.20
  -4   0  -4  163.44   10.60
  -4   0   4  165.22   10.42
  -4   0  -4  162.14   10.64
   4   0   4  157.76    9.94
  -4   0  -4  154.62   10.30
   4   0   4  142.21    9.67
   4   0   4  161.71   10.49
  -4   0   4  169.43    9.80
  -6   0  -4   65.48    6.03
   6   0   4   65.88    5.41
  -6   0  -4   66.93    7.01
  -6   0   4   64.29    5.65
  -6   0   4   64.24    6.38
  -6   0  -4   58.45    4.92
   6   0   4   74.65    5.19
   6   0   4   68.01    5.12
   6   0  -4   69.90    5.28
   6   0  -4   67.75    5.50
   6   0   4   73.93    5.14
   6   0  -4   65.73    5.43
  -1   1   4   -0.45    2.49
   1   1  -4    0.57    0.60
  -1  -1  -4   -3.45    2.00
  -1   1   4    0.42    2.76
  -1  -1  -4    1.64    0.69
  -1   1   4    0.72    0.43
   1   1  -4    0.91    0.67
   1   1  -4    0.52    0.65
   1   1  -4   -1.81    2.23
  -1  -1  -4    0.06    1.84
  -1   1   4    1.66    0.55
  -1  -1  -4    0.58    0.47
   1   1  -4    0.30    0.32
   1  -1   4    0.56    0.38
  -1   1   4    1.48    0.44
   1  -1   4   -0.08    2.63
   1  -1   4    0.69    0.41
   1  -1   4    0.13    2.52
  -1  -1  -4    2.00    2.71
   1   1  -4    2.49    2.72
   1  -1   4    1.36    0.47
  -1   1   4    5.51    2.56
  -1  -1  -4    0.84    0.51
   1  -1   4    3.44    2.54
   1   1  -4   -0.41    2.30
  -1  -1  -4    2.33    0.93
   1  -1  -4   -0.07    2.40
  -1   1  -4    0.44    0.69
   1  -1  -4    1.37    2.29
   1   1   4    0.50    0.44
  -1   1  -4    0.30    0.47
   1  -1  -4    0.38    0.34
   1   1   4    0.14    2.32
  -1  -1   4    0.54    0.48
  -1   1  -4    2.53    2.01
   1  -1  -4    0.03    0.57
  -1  -1   4    0.82    0.44
  -1  -1   4    0.84    0.47
   1  -1  -4    1.31    2.67
   1   1   4    2.83    2.56
  -1   1  -4    1.21    0.40
  -1  -1   4    2.59    2.71
   1   1   4    0.49    0.38
  -1   1  -4    2.55    1.76
  -1  -1   4   -0.47    2.26
  -1   1  -4   -0.05    0.57
  -1  -1   4    1.14    2.41
   1  -1  -4    1.45    0.63
   1   1   4    1.34    2.35
  -1   1  -4    1.18    0.89
  -1   1  -4    1.55    2.78
   1   1   4    0.62    0.36
  -3  -1  -4   -0.61    0.88
   3  -1   4   -0.06    0.67
  -3   1   4   -0.24    0.67
   3  -1   4   -0.08    0.71
   3  -1   4   -0.38    0.73
   3  -1   4   -0.06    0.59
  -3   1   4    0.54    0.68
  -3  -1  -4    0.14    1.67
   3   1  -4    0.50    0.91
   3   1  -4   -0.20    0.78
  -3  -1  -4    0.43    1.18
  -3   1   4    0.06    0.65
  -3   1   4    0.37    0.77
   3   1  -4    0.89    1.18
  -3  -1  -4    1.10    0.85
   3  -1   4    1.08    0.91
   3  -1   4   -0.82    0.72
  -3  -1  -4    0.57    1.16
   3   1   4    0.64    0.68
  -3  -1   4    1.58    0.75
   3  -1  -4    0.86    0.78
  -3   1  -4   -0.18    1.14
   3  -1  -4    0.47    1.07
  -3   1  -4    0.08    0.84
   3   1   4    0.72    0.66
   3  -1  -4    0.64    0.95
  -3  -1   4    0.63    0.67
  -3   1  -4    0.47    0.85
  -3   1  -4   -2.55    1.33
   3   1   4    0.77    0.89
  -3  -1   4    0.14    0.75
   3   1   4    0.83    0.62
   3   1   4    1.11    0.75
   3   1   4   -0.23    0.69
  -3   1  -4   -1.10    0.73
  -3  -1   4    0.27    0.63
  -5  -1  -4    1.12    1.94
  -5   1   4    2.51    1.50
   5  -1   4   -0.16    1.49
   5   1  -4   -3.78    1.35
  -5  -1  -4   -2.40    2.10
  -5  -1  -4    1.38    1.25
   5  -1   4   -1.64    1.34
  -5   1   4   -1.17    1.33
  -5   1   4    0.51    1.56
   5   1  -4   -0.24    1.63
  -5   1   4    1.23    1.87
   5  -1   4    0.46    1.05
   5   1  -4    0.59    1.51
   5  -1   4   -0.89    1.17
   5  -1   4    1.61    1.38
  -5   1  -4    1.09    1.76
   5   1   4   -0.37    1.52
   5  -1  -4    1.22    1.53
  -5  -1   4    1.10    1.54
   5  -1  -4   -0.77    1.63
   5   1   4    1.47    1.20
   5   1   4    0.59    1.13
   5   1   4    1.15    1.42
  -5   1  -4    3.39    2.35
  -5  -1   4   -0.83    1.45
  -5  -1   4   -1.80    1.73
   5  -1  -4   -3.90    1.46
   5   1   4    0.19    1.40
  -5  -1   4    0.18    1.53
  -5   1  -4   -0.10    1.19
   7  -1   4   -0.89    1.69
   7   1  -4    4.44    2.49
  -7   1   4   -4.57    2.35
  -7  -1  -4    0.98    2.22
   7   1  -4    1.33    2.21
   7  -1   4   -1.76    1.82
  -7   1   4   -1.02    1.79
   7  -1   4   -1.40    1.33
   7   1   4   -1.54    1.64
  -7  -1   4    0.06    2.58
  -7  -1   4   -3.88    1.77
   7  -1  -4    2.37    2.26
   7   1   4    2.88    1.48
   7   1   4   -2.03    1.91
   7  -1  -4    0.00    2.20
  -7   1  -4   -0.65    2.14
   0   2  -4   -1.95    2.09
   0  -2   4    1.44    2.08
   0   2   4   -0.07    0.30
   0  -2  -4   -1.54    2.00
   0  -2  -4    1.05    2.50
   0  -2   4   -2.02    2.07
   0   2   4   -1.51    2.26
   0   2  -4   -1.20    1.88
   0   2  -4    1.06    0.50
   0  -2   4    0.79    0.39
   0  -2  -4   -0.32    2.05
   0   2   4    2.53    2.44
   0  -2   4    0.61    0.29
   0   2  -4    0.16    0.40
   0  -2   4    0.88    0.43
   0   2  -4    0.93    1.85
   0  -2  -4    0.43    0.53
   0  -2   4   -0.93    2.11
   0   2   4   -0.10    0.35
   0  -2  -4    1.27    0.64
   0   2   4    0.59    0.40
   0   2  -4   -0.51    0.42
   0   2   4    0.30    2.30
   0  -2  -4   -0.04    0.62
   2   2  -4   -0.66    0.45
   2  -2   4    1.30    0.58
  -2   2   4    0.51    0.61
  -2   2   4    0.16    0.45
   2   2  -4    0.83    0.94
  -2  -2  -4   -1.12    0.73
   2   2  -4   -0.44    0.66
  -2  -2  -4   -0.51    2.83
   2  -2   4    0.39    0.56
  -2  -2  -4    0.09    0.58
  -2  -2  -4    0.29    1.19
   2  -2   4    1.10    2.72
   2  -2   4    0.11    0.45
   2  -2   4    0.06    0.54
  -2  -2  -4   -1.24    2.86
   2   2  -4    1.55    0.93
  -2   2   4    0.49    0.52
  -2  -2  -4    0.83    0.71
   2   2   4   -0.05    0.49
  -2   2  -4    0.75    0.69
  -2   2  -4    0.20    1.12
   2  -2  -4   -0.35    0.67
  -2  -2   4   -0.04    0.52
  -2   2  -4   -1.94    2.77
  -2   2  -4    0.52    0.71
   2  -2  -4   -0.50    0.73
   2   2   4   -0.80    0.44
  -2   2  -4    0.28    0.57
  -2   2  -4   -3.29    2.87
  -2  -2   4   -0.02    0.46
  -2  -2   4    0.54    0.51
   2   2   4    0.34    0.50
   2  -2  -4    0.97    0.68
   2   2   4   -0.68    3.02
   2   2   4   -0.49    0.41
   4   2  -4   -0.13    1.24
   4  -2   4   -0.06    0.87
  -4  -2  -4    0.40    1.72
   4  -2   4   -0.14    1.11
  -4  -2  -4   -0.67    0.97
   4   2  -4   -1.19    1.10
   4   2  -4   -2.96    1.40
  -4  -2  -4   -1.00    1.94
   4  -2   4    0.80    1.03
  -4   2   4   -0.08    0.99
  -4  -2  -4    0.53    1.37
  -4   2   4    0.34    1.12
   4  -2   4   -0.55    0.88
  -4   2   4   -0.56    0.89
   4  -2   4    0.36    1.24
  -4   2   4   -0.13    0.97
   4  -2   4    0.11    1.10
   4   2   4    0.16    0.96
  -4  -2   4    0.71    1.06
  -4   2  -4   -0.76    1.53
  -4   2  -4    1.68    1.75
  -4  -2   4   -0.41    0.96
  -4  -2   4   -0.91    0.83
   4  -2  -4   -1.42    1.14
   4   2   4    0.43    0.90
  -4   2  -4    1.75    1.35
  -4   2  -4   -0.60    0.81
   4   2   4    0.00    1.05
   4   2   4   -0.24    0.92
   4  -2  -4    0.36    1.41
   4   2   4   -0.79    0.96
  -4  -2   4   -1.01    1.17
  -4   2  -4    0.80    1.06
   4   2   4    0.07    1.15
  -6  -2  -4   -1.56    2.52
   6   2  -4    3.38    1.90
   6   2  -4    0.53    1.91
  -6   2   4    0.67    3.03
   6   2  -4    3.39    1.93
   6  -2   4    1.36    1.40
  -6  -2  -4    1.07    2.00
  -6   2   4   -2.56    2.01
   6  -2   4    2.73    1.56
   6  -2   4   -2.22    1.48
  -6   2   4    0.93    1.74
   6  -2   4   -0.28    1.19
   6  -2  -4    1.92    1.80
  -6  -2   4    0.55    1.61
   6   2   4    1.91    1.33
  -6   2  -4   -1.08    1.41
   6  -2  -4   -0.44    1.82
  -6  -2   4   -0.35    2.90
  -6  -2   4    0.56    2.04
  -6   2  -4   -2.63    2.05
   6   2   4    0.61    1.52
  -6  -2   4    1.31    3.03
  -6   2  -4   -3.19    2.75
   6   2   4    0.18    1.39
   6  -2  -4    1.85    1.82
   6   2   4   -2.63    1.38
  -1   3   4    6.85    0.89
  -1   3   4    5.05    0.82
  -1   3   4    6.32    0.97
  -1  -3  -4    6.46    2.54
  -1  -3  -4    6.05    0.97
   1   3  -4    6.64    0.70
  -1  -3  -4    6.87    2.81
   1   3  -4    6.15    2.66
  -1  -3  -4    5.82    1.00
  -1  -3  -4    6.64    3.04
   1  -3   4    8.76    1.03
  -1   3   4    9.34    3.24
   1  -3   4    5.97    0.82
   1   3  -4    5.33    0.99
  -1   3   4    1.73    2.61
   1   3  -4    3.58    2.59
   1   3  -4    6.29    3.82
  -1  -3  -4    7.37    1.41
   1   3  -4    5.44    1.06
   1  -3   4    6.08    0.75
  -1   3   4    6.37    2.81
   1   3  -4    4.99    1.03
  -1  -3  -4    8.18    1.19
  -1   3  -4    6.12    0.99
  -1  -3   4    6.22    0.85
   1  -3  -4    1.87    2.64
   1   3   4    4.21    3.01
   1  -3  -4    6.64    1.04
   1   3   4    5.47    2.91
   1  -3  -4    7.35    1.12
  -1  -3   4    7.81    0.96
  -1   3  -4    8.82    1.17
   1   3   4    6.35    0.95
  -1  -3   4    7.47    1.05
   1  -3  -4    2.85    2.80
  -1   3  -4    5.63    1.08
  -1   3  -4    7.47    0.83
  -1  -3   4    7.58    4.07
   1  -3  -4   10.82    3.37
   1   3   4    9.23    2.89
  -1  -3   4    4.56    2.98
   1   3   4    5.93    0.78
  -1  -3   4    6.25    4.00
   1  -3  -4    5.23    0.65
   1   3   4    8.27    1.04
  -3  -3  -4    4.85    1.69
  -3   3   4    6.50    0.93
   3  -3   4    2.71    1.01
   3  -3   4    4.43    1.07
   3  -3   4    3.72    0.94
   3   3  -4    5.25    1.05
  -3  -3  -4    2.98    1.12
  -3  -3  -4    4.51    1.26
   3   3  -4    7.20    1.29
  -3  -3  -4    4.11    1.22
   3  -3   4    4.88    1.05
  -3  -3  -4    5.03    1.95
  -3   3   4    4.61    1.14
   3   3  -4    4.89    1.53
   3  -3   4    4.33    1.09
  -3   3   4    5.36    1.15
   3  -3   4    4.58    1.34
   3   3  -4    7.16    1.56
  -3   3   4    6.15    1.17
   3  -3  -4    3.92    1.16
   3   3   4    4.73    0.99
  -3   3  -4    1.77    1.48
  -3   3  -4    5.17    1.14
   3  -3  -4    4.70    1.27
  -3  -3   4    4.09    0.96
  -3  -3   4    4.38    1.13
  -3  -3   4    4.25    0.96
   3   3   4    5.47    1.43
   3  -3  -4    3.44    1.24
   3   3   4    5.55    0.88
   3   3   4    5.08    1.12
  -3   3  -4    3.21    1.03
   3   3   4    5.17    0.99
   3   3   4    5.77    0.99
  -3   3  -4    3.75    1.17
  -3  -3   4    5.12    0.90
   5  -3   4    2.42    1.37
  -5  -3  -4    3.39    2.57
   5   3  -4    3.61    1.76
   5   3  -4    2.04    1.47
   5  -3   4    2.66    1.33
  -5  -3  -4    0.95    1.83
   5   3  -4    3.14    1.64
  -5   3   4    0.87    1.67
  -5   3   4   -0.47    1.28
  -5  -3  -4    6.18    2.42
   5  -3   4    3.54    1.17
  -5   3   4    2.78    1.99
  -5  -3  -4    3.52    1.33
   5  -3   4    3.39    1.95
  -5   3   4    1.23    1.61
  -5   3  -4    5.07    2.31
  -5   3  -4    1.60    1.15
   5   3   4    2.77    1.40
  -5  -3   4    3.80    1.73
  -5   3  -4    0.70    1.82
   5  -3  -4    1.85    1.56
   5   3   4    3.85    1.85
  -5  -3   4    2.34    1.60
   5   3   4    2.93    1.92
   5  -3  -4    3.33    1.83
   5   3   4    2.92    1.50
   5   3   4    2.48    1.23
   5   3   4    1.37    1.37
  -5  -3   4    3.98    1.86
  -5  -3   4    3.10    1.79
   7  -3   4    1.41    1.67
   7  -3   4    1.31    1.32
  -7   3   4    0.84    1.91
  -7   3   4   -0.88    2.62
  -7  -3  -4    3.79    2.24
   7   3  -4   -1.97    2.26
   7  -3   4    4.15    1.92
   7  -3  -4    0.11    2.17
  -7   3  -4    2.27    2.38
   7   3   4    0.73    1.72
   7   3   4    1.99    1.49
   7   3   4    2.48    2.02
   7  -3  -4    1.12    2.10
  -7  -3   4    1.24    1.91
  -7  -3   4    0.67    2.64
   0  -4  -4   -0.02    0.61
   0   4  -4    0.45    0.42
   0  -4  -4   -4.71    2.43
   0  -4   4    2.22    1.99
   0   4  -4   -1.62    1.76
   0   4   4   -0.29    0.32
   0  -4  -4    0.19    0.72
   0  -4  -4    0.47    2.34
   0   4  -4   -4.08    2.06
   0  -4   4   -0.10    0.30
   0  -4   4    0.25    0.36
   0   4   4    1.29    2.47
   0   4  -4    0.46    0.42
   0   4  -4   -0.32    0.28
   0   4   4   -1.10    2.37
   0   4   4    0.11    0.37
   0   4  -4    0.39    0.49
   0  -4  -4    1.86    2.31
   0  -4   4   -0.25    0.37
   0  -4   4    2.23    2.24
   0  -4   4    0.69    2.04
   0   4   4   -0.25    0.36
   0  -4  -4    0.10    0.47
   0   4  -4   -0.58    1.78
   0   4   4   -1.46    2.50
   2  -4   4    0.95    0.44
  -2   4   4    0.17    0.49
   2   4  -4   -0.58    1.03
   2  -4   4    0.46    0.50
   2   4  -4   -0.52    0.45
  -2   4   4    1.31    4.06
  -2   4   4    0.07    0.47
   2  -4   4    1.16    0.59
  -2  -4  -4    0.26    0.57
   2   4  -4   -1.08    0.58
  -2   4   4    0.49    0.57
  -2  -4  -4   -0.27    0.82
  -2  -4  -4    0.48    1.13
  -2   4   4   -3.76    5.44
   2  -4   4   -0.83    2.75
  -2  -4  -4    0.80    0.69
  -2  -4  -4    0.19    0.74
   2   4  -4    0.67    0.78
  -2   4   4    2.27    4.24
   2  -4   4   -0.25    0.54
  -2   4  -4    4.11    2.79
   2   4   4    0.60    0.43
  -2  -4   4    0.78    0.55
  -2  -4   4   -0.43    0.48
   2  -4  -4    2.99    3.35
   2  -4  -4   -3.56    3.19
  -2  -4   4   -0.44    0.45
   2   4   4    0.56    0.47
   2  -4  -4   -0.34    0.64
  -2   4  -4    0.86    0.77
   2   4   4   -0.87    0.43
   2  -4  -4   -0.45    0.90
  -2  -4   4   -0.54    0.49
   2  -4  -4   -8.98    4.08
   2  -4  -4    0.09    0.73
   2   4   4    0.45    0.51
  -2   4  -4    3.40    2.89
  -2   4  -4    0.76    0.67
  -2   4  -4   -0.13    0.58
   4  -4   4    0.81    1.22
   4  -4   4    0.67    0.98
   4   4  -4   -0.59    1.24
  -4  -4  -4    0.22    1.03
   4  -4   4    0.19    1.20
   4   4  -4    1.60    1.55
  -4   4   4    0.19    0.97
   4   4  -4   -0.04    1.12
  -4  -4  -4    1.74    2.16
  -4  -4  -4    1.42    1.71
  -4   4   4    0.92    0.89
  -4  -4  -4   -0.45    1.27
   4  -4   4    0.45    1.10
  -4   4   4   -0.22    1.10
  -4  -4  -4    0.14    1.87
   4  -4   4    0.81    1.04
   4  -4   4   -0.85    0.83
  -4   4   4    0.81    0.99
  -4   4  -4    0.59    1.61
   4  -4  -4    2.62    1.26
  -4  -4   4    1.38    1.25
   4   4   4   -0.57    1.04
   4  -4  -4    0.58    1.29
   4   4   4    0.08    0.84
  -4   4  -4    0.59    1.72
  -4   4  -4    0.57    1.24
  -4   4  -4    0.73    1.14
   4   4   4   -0.10    1.00
  -4  -4   4   -0.25    0.99
  -4  -4   4    2.30    0.96
  -4  -4   4    0.68    1.12
  -4   4  -4   -0.12    0.83
   4   4   4    1.77    1.35
   4   4   4    1.25    1.01
   4   4   4    1.03    1.00
   6   4  -4    0.36    1.78
   6  -4   4    0.78    1.46
  -6  -4  -4   -1.52    1.97
  -6   4   4   -1.74    3.42
  -6   4   4   -0.69    2.03
   6  -4   4   -0.37    1.55
  -6  -4  -4    0.51    2.75
  -6   4   4   -0.91    1.68
   6  -4   4    0.13    1.21
   6   4  -4    1.68    2.03
   6   4  -4   -1.09    1.65
  -6  -4   4    0.83    1.67
   6   4   4   -0.06    1.49
  -6   4  -4    0.16    2.15
  -6  -4   4   -0.75    1.94
   6  -4  -4   -2.04    1.71
   6   4   4   -1.81    1.60
  -6  -4   4   -0.24    2.84
   6  -4  -4   -0.85    1.79
   6   4   4    0.16    1.30
  -6   4  -4   -1.08    1.35
  -6  -4   4    1.15    2.88
   6  -4  -4    1.38    1.88
   6   4   4    0.45    1.46
   1   5  -4    4.96    0.63
  -1   5   4    2.08    2.86
  -1   5   4    6.16    0.94
   1   5  -4    3.94    0.92
  -1  -5  -4    5.15    2.78
   1  -5   4    6.45    0.90
   1   5  -4    5.12    1.01
  -1  -5  -4    7.78    2.91
  -1  -5  -4    4.71    0.93
  -1   5   4    3.36    2.66
  -1   5   4    6.86    3.14
   1   5  -4    5.05    0.88
  -1  -5  -4    5.44    1.32
  -1   5   4    4.73    0.84
  -1  -5  -4    6.40    0.96
  -1  -5  -4    8.39    3.44
  -1   5   4    5.16    0.80
  -1  -5  -4    7.57    1.06
   1  -5   4    7.05    0.84
   1  -5   4    5.25    0.67
   1  -5  -4    1.82    3.16
   1   5   4    5.42    0.84
   1   5   4    4.29    2.78
   1  -5  -4    6.33    2.97
  -1   5  -4    4.60    0.60
   1  -5  -4    4.71    0.55
  -1  -5   4    5.49    0.83
  -1   5  -4    5.34    0.67
   1   5   4    3.78    3.08
   1   5   4    4.89    0.71
   1  -5  -4    5.55    0.92
   1  -5  -4    6.89    1.00
   1  -5  -4   -0.22    2.63
   1   5   4    7.07    2.98
  -1   5  -4    5.79    1.08
   1   5   4    4.74    0.64
  -1   5  -4    5.58    1.02
  -1   5  -4    5.33    1.11
  -1  -5   4    6.53    1.00
   1   5   4    6.17    0.89
  -1  -5   4    5.77    0.74
   3   5  -4    2.25    1.02
  -3   5   4    2.90    0.95
   3  -5   4    2.18    0.76
  -3   5   4    3.47    0.88
  -3  -5  -4    1.90    1.07
   3  -5   4    1.88    0.90
   3   5  -4    4.20    0.89
  -3  -5  -4    1.77    1.85
   3  -5   4    4.50    1.09
   3  -5   4    3.37    0.94
  -3  -5  -4    3.95    1.22
   3   5  -4    0.61    1.40
   3  -5   4    4.19    0.96
  -3   5   4    3.50    0.90
   3   5  -4    4.21    0.87
   3   5  -4    1.27    1.10
  -3  -5  -4    2.72    1.56
  -3   5   4    3.33    1.01
   3  -5   4    5.96    1.49
  -3  -5  -4    0.91    0.82
  -3   5  -4    2.05    1.05
  -3  -5   4    2.46    0.92
   3   5   4    2.48    0.72
  -3  -5   4    2.89    0.95
   3   5   4    5.40    1.10
   3   5   4    2.75    0.81
   3   5   4    3.07    1.23
  -3  -5   4    2.99    0.76
  -3   5  -4    4.31    1.22
   3  -5  -4    5.68    1.28
  -3   5  -4    1.32    0.93
   3   5   4    3.21    0.86
  -3  -5   4    1.99    1.08
   3  -5  -4    2.95    1.05
   3   5   4    2.11    0.75
  -5  -5  -4    1.00    2.39
  -5   5   4    1.13    1.57
   5  -5   4    1.18    1.03
   5   5  -4    1.55    1.52
  -5   5   4    0.84    2.26
  -5  -5  -4    1.34    1.85
  -5  -5  -4    1.94    2.70
   5  -5   4    1.84    1.24
   5   5  -4   -1.05    1.50
   5  -5   4    0.97    1.80
   5   5  -4   -1.57    1.70
   5  -5   4    0.74    1.27
  -5  -5  -4   -2.22    1.26
  -5   5   4    0.71    1.25
  -5   5   4    0.65    1.89
  -5   5  -4    1.76    1.16
   5   5   4    0.68    1.06
   5  -5  -4    1.96    1.59
  -5   5  -4    0.52    1.13
   5   5   4   -1.45    1.37
   5   5   4    2.07    1.72
  -5  -5   4    1.34    1.57
  -5  -5   4    3.34    1.86
  -5  -5   4    3.04    1.50
   5   5   4    1.54    1.30
  -5  -5   4    0.52    1.60
   5   5   4    3.36    1.78
   5   5   4    2.67    1.45
   5  -5  -4   -0.66    1.60
  -5   5  -4    0.59    1.84
   7  -5   4    3.30    1.49
   7   5  -4   -2.57    1.72
  -7   5   4   -0.53    1.89
  -7  -5  -4    3.48    2.52
  -7   5   4    0.57    2.56
   7  -5   4    0.33    1.68
   7  -5   4   -1.42    1.97
   7   5  -4   -2.62    2.35
   7  -5  -4   -4.37    1.97
   7   5   4   -2.69    1.87
   7   5   4   -1.97    1.49
   7  -5  -4    1.80    2.07
  -7  -5   4    0.92    1.88
   7   5   4    0.03    1.74
  -7  -5   4    4.06    2.55
  -7  -5   4    3.74    4.82
  -7   5  -4   -1.20    2.09
   0   6   4    3.03    3.00
   0  -6  -4    2.47    1.13
   0   6  -4    2.20    0.39
   0  -6  -4    0.73    2.57
   0  -6   4    2.03    0.49
   0   6  -4    2.58    2.40
   0   6  -4    2.94    0.68
   0  -6  -4    2.60    0.70
   0   6  -4    3.76    0.73
   0  -6  -4    1.64    2.55
   0   6   4    4.36    2.70
   0   6   4   -3.37    2.54
   0  -6   4    2.34    0.54
   0  -6  -4    4.49    2.72
   0  -6   4   -0.14    2.36
   0   6  -4    1.57    0.50
   0   6  -4    2.26    0.66
   0   6   4    2.31    0.46
   0  -6  -4    2.83    0.72
   0   6   4    1.87    0.53
   0   6  -4    3.17    2.29
   0   6   4    2.56    0.61
   2   6  -4    2.28    0.91
   2  -6   4    2.98    3.02
   2  -6   4    2.28    0.76
   2  -6   4    2.94    0.75
  -2  -6  -4    1.88    1.40
   2   6  -4    1.79    0.83
   2  -6   4    3.02    0.68
  -2  -6  -4    1.72    0.79
  -2   6   4    4.88    0.85
  -2   6   4    1.46    0.74
   2  -6   4    2.00    0.69
  -2   6   4   -2.86    3.89
   2   6  -4    2.64    1.29
  -2  -6  -4    1.84    0.86
   2   6  -4    2.36    0.57
  -2  -6  -4    0.57    0.76
  -2  -6  -4    3.58    1.25
  -2   6   4    1.76    0.61
  -2   6   4   10.24    4.23
  -2   6   4    3.59    4.16
  -2   6  -4    0.12    2.78
   2   6   4    2.21    0.65
  -2   6  -4   -0.65    2.94
  -2   6  -4    2.23    0.85
   2  -6  -4    3.21    4.40
  -2  -6   4    2.05    0.62
   2  -6  -4    0.95    1.19
   2   6   4    3.33    0.67
   2   6   4    3.01    0.66
  -2   6  -4    2.22    0.92
   2  -6  -4   -1.13    3.25
   2  -6  -4    1.37    0.78
   2  -6  -4   -2.13    3.28
  -2  -6   4    3.77    0.87
  -2   6  -4    3.65    1.01
   2   6   4    2.74    0.60
   2  -6  -4    2.95    0.84
  -2  -6   4    2.20    0.82
  -2  -6   4    4.23    0.81
   4   6  -4    1.28    1.15
  -4  -6  -4    1.55    2.17
   4   6  -4    4.69    1.41
   4  -6   4    2.62    1.33
  -4  -6  -4    2.77    1.20
  -4   6   4    2.64    1.05
  -4  -6  -4    2.89    1.77
  -4  -6  -4    2.94    2.42
  -4  -6  -4    3.74    1.82
   4   6  -4    1.80    0.99
   4  -6   4    3.04    1.10
   4  -6   4    2.31    1.28
   4  -6   4    1.40    0.96
   4   6  -4    2.86    1.73
   4  -6   4    3.29    1.21
  -4   6   4    1.99    1.04
  -4   6   4    0.87    1.24
  -4   6   4    2.62    1.25
   4  -6   4   -0.87    1.29
  -4   6  -4    1.97    1.25
  -4  -6   4    3.41    1.34
  -4  -6   4    3.69    1.31
   4  -6  -4    2.13    1.37
   4   6   4    3.13    1.10
   4   6   4    1.07    1.13
  -4  -6   4    1.74    0.96
  -4   6  -4    4.16    1.23
   4   6   4    3.93    1.47
   4   6   4    1.74    1.15
   4   6   4    0.18    0.98
   4  -6  -4    2.34    1.34
  -4   6  -4    3.94    1.46
   4   6   4    3.29    1.15
  -4  -6   4    3.03    1.28
   6   6  -4    0.24    1.69
  -6  -6  -4    1.93    2.27
   6  -6   4    0.81    1.57
   6   6  -4    0.34    1.89
   6   6  -4    3.10    1.73
   6  -6   4    0.52    1.44
  -6   6   4    0.90    2.27
   6  -6   4    1.97    1.26
  -6  -6  -4   -1.09    2.73
  -6   6   4    0.67    1.81
   6   6   4    3.90    1.41
   6   6   4    2.30    1.68
  -6   6  -4    0.94    2.12
   6   6   4    2.42    1.60
   6  -6  -4    2.17    1.83
   6   6   4    2.34    1.68
   6  -6  -4    3.13    1.99
  -6  -6   4    0.03    2.10
  -6  -6   4   -0.21    3.07
  -6  -6   4   -0.26    1.58
  -6   6  -4    1.22    1.33
  -6  -6   4    2.67    3.03
   6  -6  -4    0.86    1.91
  -1   7   4    2.27    3.26
  -1  -7  -4    5.45    3.13
   1   7  -4    3.37    0.73
  -1   7   4    3.85    0.78
   1   7  -4    2.60    0.50
  -1   7   4    0.92    3.15
  -1  -7  -4    2.02    2.61
   1  -7   4    2.92    0.66
  -1  -7  -4    3.18    0.74
  -1  -7  -4    2.82    0.77
   1   7  -4    2.99    0.80
  -1  -7  -4    1.16    2.76
   1  -7   4    2.75    0.58
  -1   7   4    2.51    3.06
  -1   7   4    2.45    0.67
   1  -7   4    2.97    0.55
  -1  -7  -4    1.47    1.10
   1   7  -4    3.12    0.76
  -1   7   4    3.64    0.71
   1  -7  -4    4.28    3.17
  -1   7  -4    3.96    0.77
  -1  -7   4    2.45    0.73
  -1  -7   4    2.64    0.63
  -1   7  -4    3.57    0.90
   1  -7  -4    3.92    2.92
   1  -7  -4    2.71    0.80
   1   7   4    2.16    0.58
   1   7   4    2.37    0.56
   1   7   4   -1.07    2.88
  -1   7  -4    3.13    0.51
  -1   7  -4    1.67    0.63
   1   7   4    2.69    0.62
  -1  -7   4    3.00    0.58
   1  -7  -4    2.71    0.76
   1  -7  -4    3.01    1.16
   1   7   4   -0.04    3.05
  -1   7  -4    2.95    0.52
   1   7   4    3.26    0.54
   1   7   4    6.92    3.46
   1  -7  -4    5.65    2.90
   3   7  -4    2.17    0.78
   3   7  -4    2.36    1.09
  -3  -7  -4    0.23    0.85
  -3  -7  -4    1.12    1.52
  -3   7   4    2.02    0.83
   3  -7   4    2.24    0.91
   3   7  -4    3.21    1.10
   3  -7   4    4.02    1.06
   3   7  -4    0.92    0.71
   3   7  -4    1.26    1.53
  -3  -7  -4    2.55    1.14
  -3   7   4    3.36    0.99
  -3   7   4    2.42    0.79
  -3  -7  -4    1.03    1.88
  -3   7   4    3.19    0.84
   3  -7   4    1.89    1.03
   3  -7   4    2.19    0.92
   3  -7   4    3.16    1.09
  -3  -7  -4    0.99    1.03
   3  -7   4    2.35    0.94
  -3  -7   4    3.63    1.19
   3   7   4    1.00    0.98
   3   7   4    3.44    0.78
   3  -7  -4    2.28    1.25
   3   7   4    1.96    0.78
  -3  -7   4    2.68    1.24
  -3   7  -4    3.98    1.16
  -3  -7   4    2.43    0.84
  -3   7  -4    0.98    0.91
  -3  -7   4    2.37    0.70
   3   7   4    3.58    0.79
   3  -7  -4    3.47    1.02
   3   7   4    2.94    0.83
   3   7   4    1.05    0.70
  -3   7  -4    1.16    0.86
  -5  -7  -4    2.49    2.61
   5  -7   4    2.42    1.36
  -5  -7  -4    0.52    2.40
   5   7  -4   -0.85    1.25
  -5  -7  -4    1.91    2.00
   5   7  -4    0.63    1.47
  -5  -7  -4    0.31    2.70
   5   7  -4    3.44    1.64
   5  -7   4    1.37    1.75
  -5  -7  -4    0.91    1.41
   5  -7   4    1.86    1.24
  -5   7   4    2.40    1.67
   5  -7   4    1.68    1.13
  -5   7   4    1.06    1.36
  -5   7   4    1.03    1.95
  -5   7  -4   -0.27    1.04
   5   7   4    3.01    1.79
  -5   7  -4    1.79    1.80
   5   7   4    3.76    1.78
  -5   7  -4    1.93    1.25
   5   7   4    2.68    1.44
  -5  -7   4   -1.92    1.62
   5   7   4    1.21    1.30
   5   7   4    1.05    1.27
   5   7   4    0.66    1.33
  -5  -7   4    0.16    1.47
  -5  -7   4    5.11    2.12
   5  -7  -4    1.48    1.48
   5  -7  -4    0.67    1.61
  -5  -7   4   -0.71    1.73
   7   7  -4    6.64    1.98
  -7  -7  -4   -2.14    2.31
   7  -7   4   -0.85    1.38
   7   7  -4   -4.35    2.44
  -7   7   4    0.62    1.98
  -7   7   4    1.67    2.62
   7  -7   4    4.18    1.77
   7   7   4   -1.95    1.73
   7   7   4   -0.77    2.01
  -7  -7   4   -0.11    1.94
   7   7   4    1.18    1.52
  -7  -7   4    1.76    4.54
   7  -7  -4    0.56    1.75
   7  -7  -4    0.42    2.15
  -7  -7   4   -3.65    2.62
  -7   7  -4    3.52    2.37
   0   8   4    0.29    0.35
   0  -8  -4   -1.54    0.80
   0  -8   4    0.65    0.40
   0   8   4   -0.80    2.77
   0   8  -4    0.21    0.50
   0   8  -4   -0.07    0.42
   0   8  -4    0.65    0.49
   0  -8  -4    0.28    0.58
   0  -8  -4   -0.23    2.75
   0   8   4    3.07    3.40
   0   8  -4    0.47    0.35
   0   8   4    0.31    0.41
   0   8   4   -1.57    2.79
   0   8  -4   -0.47    0.53
   0  -8  -4    3.69    3.22
   0  -8  -4    0.73    0.54
   0  -8   4   -0.24    0.37
   0   8   4    0.16    0.40
   0  -8  -4    1.36    2.78
  -2   8   4    6.94    4.43
  -2  -8  -4   -0.22    0.96
   2  -8   4    2.31    2.99
  -2   8   4    5.40    4.33
   2  -8   4    0.22    0.58
  -2  -8  -4   -0.32    0.66
   2   8  -4   -0.27    0.64
   2  -8   4    0.51    0.73
   2   8  -4   -0.35    0.75
   2  -8   4   -0.58    0.45
  -2   8   4   -0.12    0.49
  -2  -8  -4   -0.01    0.76
   2  -8   4   -0.62    0.59
  -2  -8  -4   -1.41    1.26
  -2   8   4    0.12    0.60
   2   8  -4    0.18    0.47
  -2   8   4    0.83    4.30
  -2  -8  -4    0.17    0.69
  -2   8   4    0.10    0.45
  -2  -8   4    1.26    0.53
  -2   8  -4   -0.69    0.61
  -2   8  -4   -0.80    0.52
  -2   8  -4   -0.34    0.62
   2   8   4   -0.03    0.48
  -2   8  -4   -0.15    2.95
   2  -8  -4    0.21    1.23
  -2   8  -4    0.43    0.76
   2   8   4    0.26    0.46
   2  -8  -4    2.61    3.59
   2  -8  -4    0.60    0.76
  -2  -8   4   -0.20    0.57
   2  -8  -4    0.93    0.77
   2  -8  -4   -4.77    3.40
  -2  -8   4    0.02    0.56
  -2  -8   4   -0.06    0.58
   2  -8  -4   -3.89    3.98
  -2   8  -4    5.53    3.19
   2   8   4    0.19    0.46
   2   8   4   -0.47    0.42
  -4   8   4    0.89    0.97
   4   8  -4    0.06    1.20
  -4   8   4   -0.28    0.94
  -4   8   4   -0.15    1.07
  -4  -8  -4   -0.23    2.23
  -4  -8  -4    0.32    1.57
   4  -8   4    0.82    0.98
   4  -8   4   -1.40    1.13
   4  -8   4    0.70    1.06
   4   8  -4   -0.10    0.96
   4  -8   4    0.29    1.19
  -4  -8  -4    0.36    2.04
  -4  -8  -4    0.55    1.54
   4   8  -4    0.58    1.10
   4  -8   4   -0.41    1.25
  -4  -8  -4    0.46    1.17
   4  -8   4    0.49    0.98
  -4   8   4   -1.81    1.16
   4   8   4    0.37    0.98
   4   8   4   -0.18    0.97
   4  -8  -4    1.20    1.17
  -4  -8   4    0.06    1.28
   4   8   4    1.01    1.00
  -4  -8   4    0.15    1.06
  -4  -8   4   -0.03    1.00
  -4   8  -4    1.04    1.25
  -4   8  -4   -2.77    1.02
   4   8   4   -0.76    0.95
   4  -8  -4   -1.17    1.32
  -4   8  -4   -0.38    0.91
   4   8   4   -0.24    1.01
   4   8   4    0.12    1.24
  -4  -8   4   -0.05    1.22
   6   8  -4   -0.15    1.56
   6  -8   4    0.33    1.50
  -6  -8  -4    5.80    2.39
  -6   8   4   -5.22    1.99
   6  -8   4   -0.46    1.16
  -6   8   4    1.28    1.92
   6  -8   4    0.84    1.54
  -6  -8  -4   -2.34    2.70
   6   8  -4   -2.96    1.87
   6   8  -4    0.62    1.69
   6  -8  -4    3.02    1.91
  -6  -8   4   -2.88    2.82
   6   8   4    0.78    1.64
  -6   8  -4    0.99    1.33
  -6   8  -4   -2.39    2.01
   6  -8  -4   -2.99    1.72
  -6  -8   4    0.88    2.78
   6   8   4    0.36    1.70
  -6  -8   4    1.28    1.58
   6   8   4   -1.81    1.52
  -6  -8   4   -1.14    2.21
   6   8   4    0.99    1.35
  -1  -9  -4   55.10    6.32
   1  -9   4   68.80    4.07
  -1  -9  -4   62.68    4.18
   1   9  -4   65.23    4.09
   1   9  -4   64.00    4.26
  -1   9   4   65.11    4.18
  -1   9   4   45.13    6.54
   1  -9   4   62.53    3.83
   1   9  -4   61.02    3.84
   1   9  -4   60.08    4.13
  -1   9   4   65.52    4.02
  -1  -9  -4   61.07    4.86
  -1  -9  -4   58.44    6.96
  -1   9   4   61.16    6.83
  -1  -9  -4   60.53    4.03
   1  -9   4   61.85    3.81
   1  -9   4   61.70    5.37
  -1   9   4   62.53    7.15
  -1  -9  -4   63.48    6.92
   1   9  -4   62.63    3.80
  -1   9   4   62.32    4.09
   1  -9  -4   60.05    4.06
   1   9   4   63.54    3.80
  -1  -9   4   63.95    3.99
  -1  -9   4   62.59    4.18
   1   9   4   65.59    6.41
   1  -9  -4   66.52    7.05
   1   9   4   56.97    6.95
   1   9   4   63.34    4.03
   1   9   4   59.09    4.08
  -1  -9   4   61.51    3.90
  -1   9  -4   62.33    4.93
   1  -9  -4   62.28    6.46
  -1   9  -4   57.83    4.42
   1  -9  -4   62.41    4.20
   1   9   4   65.91    7.43
  -1   9  -4   61.23    4.22
  -1   9  -4   58.66    5.16
   1   9   4   62.36    3.87
   1  -9  -4   66.42    7.73
  -1   9  -4   57.54    4.22
  -1   9  -4   56.38    3.72
  -1   9  -4   60.09    3.84
   1  -9  -4   59.15    3.96
   1  -9  -4   64.69    4.59
  -3  -9  -4   37.64    4.34
   3  -9   4   39.70    3.26
   3  -9   4   43.45    3.51
  -3  -9  -4   37.40    4.35
   3  -9   4   30.38    2.90
   3  -9   4   41.09    2.96
  -3  -9  -4   36.74    3.31
  -3  -9  -4   39.79    3.28
   3  -9   4   41.43    3.22
  -3   9   4   44.57    3.21
  -3   9   4   34.43    3.14
   3   9  -4   38.54    3.45
  -3   9   4   42.02    3.23
   3  -9   4   35.59    3.07
   3   9  -4   42.35    2.76
  -3  -9  -4   41.57    3.43
  -3   9   4   38.16    2.95
   3   9  -4   45.38    2.97
   3   9  -4   42.44    3.40
   3   9   4   44.45    3.45
  -3   9  -4   44.38    3.51
  -3  -9   4   41.01    3.38
   3  -9  -4   39.98    3.43
   3   9   4   37.84    2.94
  -3   9  -4   39.53    3.63
   3   9   4   35.90    3.14
   3   9   4   43.85    3.08
   3   9   4   42.75    3.06
  -3  -9   4   44.08    3.63
  -3  -9   4   36.79    3.22
  -3   9  -4   42.77    3.55
   3  -9  -4   44.03    3.27
  -3   9  -4   33.58   10.13
   3   9   4   35.47    2.78
  -3  -9   4   37.88    2.83
   5  -9   4   22.19    2.46
  -5  -9  -4   14.84    3.20
  -5  -9  -4   16.83    3.99
   5  -9   4   21.46    2.60
  -5   9   4   11.72    2.20
  -5   9   4   18.92    3.16
  -5  -9  -4   19.31    3.94
   5  -9   4   22.60    2.57
   5  -9   4   20.86    3.38
   5   9  -4   19.72    2.71
   5   9  -4   18.70    2.46
  -5   9   4   16.40    3.01
  -5  -9  -4   19.19    3.48
   5   9  -4   17.34    2.41
   5   9   4   15.70    2.43
   5   9   4   17.65    2.73
   5   9   4   12.67    2.18
  -5  -9   4   17.53    3.20
  -5   9  -4   19.25    2.58
  -5  -9   4   19.36    3.02
  -5   9  -4   18.71    3.22
  -5  -9   4   17.51    2.59
   5   9   4   19.32    2.49
   5   9   4   16.78    2.88
  -5   9  -4   20.60    2.45
   5  -9  -4   21.73    2.67
   5  -9  -4   18.59    2.90
  -7   9   4   10.44    2.56
   7   9  -4    7.34    2.09
   7  -9   4    5.09    1.83
  -7   9   4    9.62    2.99
  -7  -9  -4   11.96    2.81
   7  -9   4   12.27    2.18
   7   9  -4    6.21    2.98
   7   9   4    7.41    1.97
  -7  -9   4    6.77    2.84
  -7   9  -4    2.95    2.96
   7  -9  -4    6.10    2.51
  -7   9  -4    8.39    2.67
  -7  -9   4    6.85    2.37
   7  -9  -4    7.35    2.17
   7   9   4    8.14    2.32
  -7  -9   4    1.01    4.61
   7   9   4    9.24    2.27
   0 -10   4  104.78    5.91
   0  10  -4   94.12    5.80
   0  10   4   98.21    6.15
   0  10   4   99.66    9.24
   0  10  -4   97.14    6.03
   0 -10   4  104.92    6.01
   0 -10  -4   95.89    8.84
   0  10   4  113.31    8.79
   0  10   4   94.00    5.83
   0  10   4   95.79    9.13
   0  10   4  100.76    6.06
   0 -10  -4  106.89    9.16
   0 -10  -4  100.96    6.81
   0  10  -4   99.62    6.25
   0  10  -4   95.38    6.28
   0 -10  -4   82.64    8.22
   0 -10  -4   95.60    6.00
   0  10  -4   98.99    6.20
   0 -10  -4  101.17    6.23
   2 -10   4   60.94    7.22
   2  10  -4   77.85    5.27
  -2  10   4   88.33    5.19
  -2 -10  -4   76.20    5.11
   2  10  -4   78.65    4.83
  -2  10   4   76.32    9.29
   2 -10   4   83.22    4.86
  -2 -10  -4   76.75    5.93
  -2  10   4   72.53    8.98
  -2  10   4   73.27    9.21
   2 -10   4   72.46    5.00
  -2 -10  -4   73.29    5.15
   2  10  -4   81.09    5.35
  -2  10   4   74.01    4.95
   2 -10   4   67.10    4.98
  -2  10   4   81.65    5.18
   2 -10   4   79.72    5.12
  -2 -10  -4   76.98    6.16
   2  10   4   75.58    5.23
   2 -10  -4   78.40    9.16
  -2  10  -4   77.31    5.30
   2 -10  -4   83.85    5.24
  -2 -10   4   81.96    5.15
   2 -10  -4   78.52    4.98
  -2  10  -4   62.98    6.94
  -2  10  -4   78.52    5.45
   2  10   4   76.73    5.13
  -2  10  -4   82.78    5.72
   2  10   4   79.48    4.84
  -2  10  -4   74.49    4.77
   2 -10  -4   81.05    8.62
   2 -10  -4   74.59    9.53
  -2 -10   4   77.96    5.21
  -2 -10   4   90.90    5.67
  -2 -10   4   78.71    4.82
  -2  10  -4   69.01    7.43
   2  10   4   77.50    4.97
   2  10   4   82.13    4.93
   2 -10  -4   71.68    5.21
   4 -10   4   49.35    3.60
  -4 -10  -4   34.48    5.04
  -4 -10  -4   44.61    4.06
   4  10  -4   45.22    3.31
   4 -10   4   42.31    3.49
   4 -10   4   40.65    3.44
   4 -10   4   46.77    3.55
   4  10  -4   40.91    3.86
  -4  10   4   45.38    3.88
  -4  10   4   41.81    3.45
  -4 -10  -4   45.05    4.22
   4 -10   4   46.65    4.18
  -4 -10  -4   34.86    5.33
   4  10  -4   47.24    3.53
  -4  10   4   43.44    3.76
   4 -10   4   41.32    3.82
  -4  10   4   43.11    3.61
   4  10   4   44.88    3.75
  -4 -10   4   45.56    4.00
   4 -10  -4   42.39    3.85
  -4  10  -4   43.67    3.96
   4  10   4   40.57    3.96
  -4 -10   4   45.70    3.89
   4  10   4   37.93    3.31
   4  10   4   52.52    3.75
  -4  10  -4   54.49    3.96
  -4  10  -4   51.12    4.21
  -4 -10   4   39.65    3.31
   4 -10  -4   43.75    3.83
   4  10   4   38.36    3.50
   4  10   4   43.83    3.61
  -4 -10   4   44.57    4.21
   6 -10   4   18.53    2.43
   6  10  -4   10.88    2.34
  -6  10   4   16.17    2.67
   6  10  -4   16.82    2.62
   6 -10   4   23.27    2.63
  -6 -10  -4   14.13    3.85
  -6  10   4   11.08    2.68
   6  10  -4   18.89    2.79
   6 -10   4   18.80    2.51
  -6  10   4   16.02    3.54
  -6 -10  -4   19.26    3.55
  -6 -10   4   11.54    3.69
  -6 -10   4   17.62    2.93
  -6  10  -4   21.80    2.75
  -6 -10   4   16.73    3.78
   6  10   4   13.15    2.33
   6  10   4   14.88    2.57
   6 -10  -4   20.13    3.10
   6  10   4   16.64    2.81
  -6  10  -4   17.08    3.05
  -6 -10   4   17.47    3.26
   6  10   4   18.14    2.50
   6 -10  -4   20.97    2.70
  -6  10  -4   10.81    2.17
   1  11  -4   35.66    2.62
  -1  11   4   36.64    2.50
   1 -11   4   34.86    2.24
   1 -11   4   29.52    3.76
  -1 -11  -4   15.90    4.39
   1  11  -4   35.96    2.74
  -1 -11  -4   36.24    2.50
  -1  11   4   29.95    5.26
  -1  11   4   38.75    5.97
  -1 -11  -4   33.73    3.28
   1  11  -4   35.23    2.36
   1 -11   4   35.79    2.47
  -1 -11  -4   20.92    4.49
  -1 -11  -4   28.13    4.94
  -1  11   4   40.36    5.70
   1 -11   4   31.85    2.33
   1  11  -4   37.61    2.56
  -1  11   4   35.49    2.58
   1  11  -4   33.99    2.28
  -1 -11  -4   35.15    2.72
  -1  11   4   34.43    2.59
   1 -11  -4   32.84    2.65
  -1  11  -4   34.29    2.97
  -1  11  -4   33.79    2.68
   1  11   4   34.63    5.34
   1 -11  -4   32.85    2.40
   1  11   4   21.98    5.28
   1 -11  -4   23.56    4.36
   1  11   4   40.58    5.24
   1  11   4   34.62    2.35
   1  11   4   36.18    2.59
  -1 -11   4   35.63    2.37
  -1  11  -4   33.61    2.26
   1 -11  -4   29.62    5.36
   1  11   4   33.56    2.29
  -1  11  -4   32.87    2.66
  -1  11  -4   29.66    3.40
   1 -11  -4   23.94    4.61
   1 -11  -4   34.23    2.65
  -1  11  -4   29.04    3.75
   1  11   4   33.32    2.46
  -1 -11   4   36.02    2.62
  -1  11  -4   32.42    2.32
   1 -11  -4   36.22    3.09
  -1 -11   4   35.30    2.46
   3 -11   4   22.25    2.52
  -3  11   4   26.41    2.24
  -3 -11  -4   25.82    3.86
   3  11  -4   27.09    2.53
  -3 -11  -4   28.75    4.07
  -3 -11  -4   25.64    2.60
   3 -11   4   20.60    2.03
  -3  11   4   23.23    2.31
   3 -11   4   26.35    2.43
  -3 -11  -4   22.75    2.47
   3 -11   4   27.18    2.47
   3 -11   4   25.47    2.53
   3  11  -4   26.41    2.72
  -3  11   4   30.67    2.55
   3  11  -4   24.13    2.09
  -3  11   4   27.95    2.35
   3 -11   4   24.40    2.37
   3  11  -4   26.75    1.97
  -3 -11   4   23.83    2.00
   3  11   4   27.24    2.19
  -3  11  -4   21.65    2.67
  -3 -11   4   25.93    2.59
   3  11   4   25.99    2.24
  -3  11  -4   25.72    2.62
   3 -11  -4   25.94    2.48
   3  11   4   25.20    2.56
  -3  11  -4   28.05    6.21
   3  11   4   23.47    2.19
  -3  11  -4   23.13    2.47
  -3  11  -4   23.23    6.03
  -3 -11   4   26.96    2.48
   3 -11  -4   23.96    2.71
  -3 -11   4   26.73    2.73
   3  11   4   24.22    2.34
  -5  11   4   16.57    2.55
  -5 -11  -4   13.40    3.11
  -5 -11  -4   18.09    3.58
   5 -11   4   14.34    2.00
   5 -11   4   13.19    1.93
  -5 -11  -4    7.27    3.47
  -5  11   4   14.47    3.75
   5  11  -4   12.50    2.26
   5  11  -4   12.75    2.08
  -5 -11  -4   11.63    3.21
   5 -11   4   13.08    2.76
   5 -11   4   16.24    2.17
   5  11  -4   14.64    2.19
  -5  11   4   12.52    2.57
  -5 -11   4   12.22    2.67
  -5  11  -4   12.52    2.12
  -5 -11   4   15.21    2.56
   5 -11  -4   16.17    2.52
  -5  11  -4   11.50    2.59
  -5  11  -4   11.20    1.92
   5  11   4   17.98    2.73
  -5 -11   4   10.89    2.89
   5 -11  -4   15.53    2.62
   5  11   4   12.91    2.11
   5  11   4   13.83    2.16
   5  11   4    8.64    1.90
  -7  11   4    7.24    2.69
   7 -11   4    9.14    1.89
   7  11  -4   10.85    2.44
  -7  11   4   11.57    2.98
  -7 -11  -4    3.47    2.72
   7 -11   4    8.21    1.98
   7  11   4    6.67    2.33
  -7 -11   4   -0.63    4.11
   7 -11  -4    0.75    2.02
  -7 -11   4    8.69    2.33
  -7  11  -4    7.16    2.89
  -7  11  -4    4.18    1.91
  -7 -11   4    7.27    3.09
   7  11   4    9.24    2.35
   7 -11  -4    4.90    2.52
   7  11   4    8.15    1.93
   0 -12  -4   23.06    4.31
   0 -12  -4   19.13    2.53
   0 -12   4   19.89    1.52
   0  12   4   15.95    3.99
   0  12   4   10.18    4.62
   0  12   4   19.77    4.10
   0  12   4   17.73    1.42
   0  12  -4   18.07    1.79
   0 -12  -4   18.96    4.80
   0 -12  -4   18.44    4.04
   0  12  -4   20.30    1.93
   0  12   4   19.08    1.69
   0 -12   4   16.04    1.39
   0  12  -4   18.60    1.67
   0 -12  -4   19.55    1.57
   0  12  -4   18.32    1.59
   0  12  -4   16.56    1.40
   0  12   4   19.18    1.57
   0 -12  -4   18.53    1.76
  -2  12   4   12.50    1.46
   2  12  -4   14.41    1.33
   2 -12   4   12.73    1.65
   2 -12   4   19.56    3.71
  -2  12   4   12.06    5.48
   2 -12   4   14.25    1.73
  -2 -12  -4   17.00    2.67
  -2  12   4   15.15    1.58
  -2  12   4   13.06    1.52
   2  12  -4   15.09    1.80
  -2  12   4   21.36    6.29
   2  12  -4   14.67    1.73
  -2 -12  -4   13.99    1.74
  -2  12   4   22.06    6.09
  -2 -12  -4   10.33    2.54
   2 -12   4   14.39    1.30
   2 -12   4   15.03    1.63
  -2 -12  -4   13.35    1.60
   2  12   4   14.77    1.94
  -2 -12   4   13.95    1.66
  -2  12  -4   13.27    1.24
   2  12   4   13.23    1.50
  -2 -12   4   12.88    1.34
  -2  12  -4   13.99    1.90
   2 -12  -4   14.43    1.98
  -2  12  -4    5.44    3.38
   2 -12  -4    4.68    5.12
   2  12   4   16.15    1.37
  -2 -12   4   18.16    2.03
   2 -12  -4    3.70    4.55
   2 -12  -4   12.34    4.89
  -2  12  -4   12.99    1.31
   2 -12  -4   14.32    1.63
  -2  12  -4   12.78    1.90
  -2  12  -4   13.65    3.50
  -2 -12   4   14.81    1.58
  -2  12  -4   14.39    1.64
   2  12   4   14.68    1.38
   2  12   4   15.78    1.44
   4  12  -4    7.28    1.80
   4  12  -4    6.04    1.34
  -4 -12  -4    7.57    2.33
   4 -12   4    7.79    1.81
   4 -12   4    8.24    2.01
   4 -12   4    9.74    1.59
  -4  12   4    7.65    1.71
  -4 -12  -4   10.58    2.23
  -4  12   4    7.04    1.53
  -4  12   4    8.71    1.79
   4 -12   4    8.64    1.54
  -4 -12  -4    2.07    2.72
   4 -12   4    7.70    1.48
  -4 -12  -4    5.74    2.90
  -4  12   4    4.71    1.27
   4  12  -4    8.65    1.44
   4 -12   4   10.53    1.60
   4  12   4    5.88    1.29
  -4  12  -4    5.45    1.31
   4  12   4    7.87    1.54
  -4  12  -4    6.14    1.75
  -4 -12   4    5.76    1.47
   4  12   4    5.94    1.33
   4  12   4    8.47    2.15
  -4 -12   4    8.15    1.47
   4 -12  -4    6.35    1.67
  -4 -12   4    6.84    1.76
   4  12   4    6.34    1.40
  -4  12  -4    6.45    1.75
   4 -12  -4    7.66    1.97
   4  12   4   12.71    1.69
  -4 -12   4    6.13    2.04
  -6  12   4    5.02    2.21
  -6  12   4    5.55    2.11
   6 -12   4    5.26    1.83
  -6 -12  -4    3.91    3.67
  -6 -12  -4    7.29    3.41
   6 -12   4    1.85    1.42
   6  12  -4    3.44    2.31
  -6 -12  -4    7.14    2.62
   6  12  -4    2.68    1.79
   6 -12   4    5.38    1.82
  -6 -12  -4   -2.21    3.58
   6  12  -4   -0.42    1.75
  -6  12   4    4.08    2.45
  -6 -12   4    2.54    1.87
  -6  12  -4    4.86    1.54
  -6 -12   4    2.11    2.55
   6  12   4    3.81    1.94
  -6 -12   4    5.60    3.32
   6  12   4    0.33    1.76
   6  12   4    1.07    1.55
  -6  12  -4    1.11    1.43
  -6 -12   4    4.22    3.02
   6 -12  -4    0.66    2.01
  -6  12  -4    4.32    2.36
   6  12   4    0.46    1.98
   6 -12  -4    3.95    2.11
  -1 -13  -4   32.58    5.53
   1 -13   4   42.47    3.01
  -1 -13  -4   38.47    3.85
   1  13  -4   45.80    3.09
  -1 -13  -4   44.04    3.27
  -1  13   4   44.18    3.06
  -1 -13  -4   48.30    3.91
  -1  13   4   40.14    6.30
  -1 -13  -4   39.41    6.01
  -1  13   4   31.21    5.72
  -1  13   4   44.76    3.16
  -1 -13  -4   45.52    3.04
  -1 -13  -4   37.09    6.14
   1  13  -4   42.31    2.93
  -1  13   4   46.13    3.16
   1 -13   4   44.74    3.04
   1  13  -4   45.88    2.90
   1  13  -4   44.85    3.18
   1  13  -4   43.65    3.31
   1 -13   4   45.20    2.75
  -1  13   4   45.30    6.73
  -1  13  -4   46.53    2.95
   1  13   4   45.11    2.96
   1  13   4   44.67    3.18
  -1 -13   4   47.78    3.07
   1  13   4   44.07    6.28
  -1  13  -4   37.36    3.52
  -1 -13   4   43.19    3.22
  -1  13  -4   41.75    2.84
   1 -13  -4   38.21    2.93
   1 -13  -4   40.82    5.68
   1 -13  -4   43.63    3.21
   1  13   4   43.81    2.90
  -1 -13   4   45.30    2.90
   1 -13  -4   46.46    3.28
  -1  13  -4   37.03    3.21
   1  13   4   38.58    6.03
   1 -13  -4   44.67    3.66
  -1  13  -4   44.08    3.26
   1  13   4   42.39    7.06
   1  13   4   47.21    3.08
   1 -13  -4   30.47    5.99
  -1 -13   4   52.75    3.64
   3 -13   4   27.11    2.74
   3 -13   4   27.53    2.65
   3 -13   4   32.81    2.93
   3  13  -4   31.57    2.79
   3 -13   4   24.60    2.58
   3 -13   4   31.59    2.64
   3  13  -4   32.56    2.34
  -3  13   4   22.06    1.97
  -3  13   4   28.44    2.42
  -3 -13  -4   33.78    4.42
  -3 -13  -4   27.86    2.71
   3 -13   4   19.23    6.36
  -3  13   4   23.37    2.42
   3 -13   4   26.95    2.19
  -3  13   4   32.35    2.72
   3  13  -4   24.94    2.81
  -3 -13  -4   32.11    2.82
  -3  13   4   30.15    2.50
  -3 -13  -4   26.43    4.15
  -3 -13   4   26.24    2.19
   3  13   4   28.44    2.61
   3  13   4   30.91    2.44
  -3 -13   4   30.25    2.91
   3 -13  -4   28.62    2.61
   3  13   4   26.41    2.35
  -3  13  -4   26.32    2.38
  -3  13  -4   33.56    3.01
   3  13   4   29.44    2.81
  -3  13  -4   29.04    2.74
  -3 -13   4   30.40    3.09
  -3 -13   4   26.63    2.61
  -3  13  -4   24.60    2.84
   3  13   4   31.93    2.38
   3 -13  -4   21.98    3.02
  -5 -13  -4   14.59    3.87
   5 -13   4   15.70    2.24
  -5  13   4   16.95    2.41
   5  13  -4   17.02    2.39
  -5 -13  -4   13.51    2.97
   5 -13   4   16.75    2.21
  -5  13   4   14.60    2.95
   5  13  -4   12.94    2.24
   5 -13   4   15.69    2.22
   5  13  -4   14.12    2.30
  -5 -13  -4   17.17    4.17
   5 -13   4   13.92    2.80
  -5 -13  -4    9.44    3.01
  -5  13   4   12.08    2.29
  -5  13  -4   12.85    2.25
  -5  13  -4   12.81    2.14
   5  13   4   15.43    2.26
   5  13   4   12.12    2.20
  -5  13  -4   13.83    2.93
   5 -13  -4   17.25    2.81
   5 -13  -4   12.47    2.52
   5  13   4    9.59    2.01
  -5 -13   4   13.41    2.29
  -5 -13   4   18.98    3.57
   5  13   4   13.27    2.42
  -5 -13   4   13.80    2.82
  -7  13   4    2.34    2.81
   7  13  -4    4.10    2.14
   7 -13   4    3.02    1.65
  -7  13   4    1.58    2.51
   7 -13   4    5.80    1.89
  -7 -13  -4    5.01    3.03
  -7  13  -4    3.39    2.67
  -7 -13   4   -3.79    4.06
  -7 -13   4    5.89    2.42
   7  13   4    8.54    2.45
   7 -13  -4    6.01    2.66
   7  13   4    3.34    1.84
   7  13   4    8.49    2.42
  -7  13  -4    4.93    1.76
   7 -13  -4    4.63    2.27
  -7 -13   4    3.85    3.04
   0 -14  -4   -0.04    0.55
   0 -14   4    0.91    0.53
   0  14   4   -4.17    3.64
   0  14   4    0.39    0.43
   0  14  -4    1.25    0.49
   0  14  -4    0.67    0.84
   0  14   4    4.57    4.37
   0 -14   4    0.96    0.49
   0 -14  -4   -3.94    3.23
   0 -14  -4    1.75    1.16
   0 -14  -4    0.09    0.65
   0 -14  -4    0.04    0.62
   0  14   4    0.56    0.53
   0  14   4    1.52    3.68
   0  14  -4    0.65    0.55
   0  14   4    0.50    0.54
   0  14  -4    0.99    0.63
   0  14  -4    0.45    0.52
   0 -14  -4    1.10    4.17
   0 -14  -4    5.14    3.53
   0 -14   4    0.72    0.55
   0  14   4   -0.07    0.47
  -2 -14  -4   -1.28    1.35
   2  14  -4   -0.02    0.51
  -2  14   4    1.74    0.68
  -2  14   4    0.56    0.60
  -2 -14  -4   -0.50    0.84
  -2  14   4    3.49    5.29
   2 -14   4    1.67    0.93
  -2  14   4    0.68    0.62
  -2 -14  -4   -0.45    0.81
   2 -14   4    0.94    0.76
   2  14  -4    0.14    0.80
   2 -14   4    0.52    0.54
  -2  14   4   -2.51    5.66
   2 -14   4    1.30    1.00
  -2 -14  -4    0.01    1.56
   2  14  -4    1.41    0.88
  -2  14   4    3.41    5.51
   2 -14  -4    8.94    5.47
   2 -14  -4    0.48    0.67
  -2 -14   4    0.26    0.81
  -2 -14   4    0.45    0.57
   2 -14  -4    0.32    1.23
   2  14   4    0.83    0.56
   2  14   4   -1.04    0.56
  -2 -14   4   -0.19    0.88
  -2  14  -4    0.84    0.78
   2  14   4   -0.21    0.50
  -2  14  -4    0.93    0.77
   2 -14  -4   -1.72    4.69
   2 -14  -4    0.13    4.73
   2  14   4    1.99    1.10
  -2  14  -4   -0.26    0.53
  -2  14  -4   -0.03    0.62
  -2  14  -4   -0.55    0.86
  -2 -14   4    0.47    0.67
   2  14   4   -0.16    0.56
   4 -14   4   -0.64    1.48
  -4  14   4   -1.38    1.15
   4 -14   4    2.06    1.33
   4 -14   4   -0.25    1.02
   4  14  -4    1.05    1.05
   4  14  -4    1.45    1.23
   4 -14   4    1.02    1.50
   4 -14   4   -0.21    0.96
  -4 -14  -4   -2.34    2.28
   4  14  -4    0.32    1.34
  -4  14   4   -0.42    1.10
  -4 -14  -4    1.02    1.63
   4 -14   4    0.67    1.08
  -4 -14  -4    0.89    1.94
  -4  14   4   -1.89    1.44
  -4 -14  -4    1.42    2.69
  -4  14   4    0.20    1.14
   4  14   4   -0.10    1.13
   4  14   4    0.72    1.19
   4 -14  -4    0.56    1.06
  -4  14  -4    1.14    1.02
  -4 -14   4    2.57    1.35
  -4  14  -4    0.95    1.18
  -4  14  -4   -1.85    1.16
   4  14   4   -1.09    1.47
   4  14   4    1.01    1.02
   4  14   4    1.61    0.99
  -4 -14   4    0.97    1.65
   4 -14  -4   -0.89    1.55
  -4 -14   4   -0.02    1.23
  -6 -14  -4    2.85    3.73
   6 -14   4   -1.22    1.32
   6  14  -4    1.14    2.36
  -6  14   4   -1.09    2.30
  -6 -14  -4    2.31    3.58
  -6  14   4   -2.44    2.02
   6 -14   4   -1.44    1.54
  -6 -14  -4    2.36    3.56
  -6 -14  -4    1.54    2.55
   6 -14   4    2.00    1.84
   6  14  -4   -0.35    2.35
   6  14  -4    0.65    1.73
  -6  14   4    0.07    2.03
  -6 -14   4    1.88    2.37
  -6 -14   4    0.23    1.71
   6 -14  -4    0.37    1.99
   6  14   4    0.13    1.95
   6  14   4    1.05    1.55
  -6 -14   4   -3.37    2.82
   6 -14  -4   -1.79    1.95
  -6  14  -4   -0.18    1.23
  -6 -14   4   -1.40    3.63
  -6  14  -4    1.16    1.33
   6  14   4    0.52    1.98
   6  14   4    0.12    2.08
  -6  14  -4    1.47    2.31
  -1 -15  -4    9.85    2.10
  -1 -15  -4   -2.18    4.15
  -1  15   4    7.40    4.63
   1  15  -4    4.74    0.93
  -1  15   4    4.07    4.35
  -1  15   4   -0.70    4.46
  -1 -15  -4    5.12    1.41
   1 -15   4    5.40    0.63
   1  15  -4    4.63    0.99
  -1 -15  -4    3.68    0.92
  -1  15   4    4.45    0.91
  -1  15   4    4.56    0.82
   1  15  -4    3.72    0.81
  -1  15   4    4.70    0.87
  -1 -15  -4    6.72    4.21
   1  15  -4    4.22    0.72
   1 -15   4    4.26    0.90
  -1 -15  -4    6.05    1.14
  -1 -15  -4    7.78    4.24
   1 -15   4    4.90    1.00
   1 -15   4    4.18    0.82
   1  15  -4    4.58    0.87
   1 -15  -4    1.80    3.88
  -1  15  -4    3.91    0.74
  -1 -15   4    5.01    1.02
   1  15   4    4.76    0.92
   1 -15  -4   -0.97    4.02
   1 -15  -4    6.36    1.25
  -1  15  -4    3.75    0.88
   1  15   4    2.10    4.33
   1  15   4    3.88    0.72
   1  15   4    3.83    0.74
  -1 -15   4    5.94    1.03
  -1  15  -4    4.46    0.86
  -1 -15   4    7.00    1.37
   1  15   4    4.02    0.82
   1  15   4    0.80    4.21
   1 -15  -4   23.71    5.53
  -1 -15   4    4.26    0.73
  -1  15  -4    4.49    1.03
   1 -15  -4    6.16    1.07
   1  15   4    6.46    4.89
   1 -15  -4    4.98    1.41
  -1  15  -4    5.32    1.22
   3 -15   4    2.91    1.18
  -3  15   4    4.05    1.05
   3 -15   4    3.84    0.89
   3  15  -4    3.63    1.36
  -3 -15  -4    4.04    1.28
  -3  15   4    2.71    1.00
   3 -15   4    3.98    1.31
  -3 -15  -4    5.05    1.24
   3 -15   4    3.89    1.15
   3  15  -4    4.98    0.93
  -3 -15  -4    0.55    2.29
   3 -15   4    3.10    1.40
  -3  15   4    3.01    0.93
  -3  15   4    2.08    0.96
  -3  15   4    2.59    0.76
   3  15  -4    4.56    1.27
  -3 -15  -4    1.95    1.86
   3 -15   4    2.94    1.39
  -3  15  -4    1.40    1.15
  -3  15  -4    3.84    1.48
   3 -15  -4    3.69    1.74
   3  15   4    4.21    1.02
  -3  15  -4    3.62    1.12
  -3 -15   4    5.44    1.55
  -3 -15   4    5.36    1.17
   3  15   4    3.22    1.11
  -3  15  -4    4.45    1.10
  -3 -15   4    0.57    0.80
   3  15   4    3.47    1.38
  -3 -15   4    2.59    1.35
   3  15   4    1.88    0.90
   3 -15  -4    2.75    1.02
   5 -15   4    1.56    1.83
  -5 -15  -4    2.76    3.26
   5  15  -4    3.75    1.73
   5  15  -4    3.84    1.67
   5  15  -4    3.29    1.51
  -5  15   4    3.48    1.68
  -5  15   4    0.81    1.52
   5 -15   4    5.73    1.72
  -5 -15  -4    1.22    3.05
  -5 -15  -4    2.51    2.67
  -5  15   4    3.57    2.08
   5 -15   4    3.95    1.36
   5 -15   4    2.21    1.38
  -5 -15  -4   -3.02    2.64
   5  15   4    1.46    1.69
   5 -15  -4    1.96    1.54
  -5  15  -4    1.87    1.88
  -5  15  -4    2.51    1.23
   5  15   4    2.49    1.44
  -5 -15   4    2.18    1.64
  -5 -15   4    0.67    1.78
  -5 -15   4   -0.94    2.31
  -5 -15   4    5.08    2.60
   5  15   4    2.49    1.62
   5  15   4    3.50    1.74
  -5  15  -4    1.41    1.33
   5 -15  -4    2.40    2.11
  -7  15   4   -1.04    2.49
   7 -15   4    1.01    1.72
   7  15  -4    1.63    2.05
   7 -15   4    0.87    1.55
  -7  15   4   -1.40    2.58
  -7 -15  -4    0.00    2.75
  -7  15  -4    0.07    2.43
   7  15   4   -2.45    1.63
   7 -15  -4   -0.45    1.98
  -7 -15   4    2.08    4.39
   7 -15  -4   -0.50    2.53
  -7  15  -4    1.07    1.71
  -7 -15   4    4.47    2.14
   7  15   4    4.75    2.41
  -7 -15   4    4.15    3.02
   0  16   4    3.03    0.58
   0 -16  -4    1.84    0.94
   0  16  -4    0.45    0.61
   0  16  -4    2.35    0.59
   0 -16  -4    2.46    0.72
   0  16  -4    2.78    0.78
   0 -16  -4    1.16    0.71
   0 -16   4    3.88    0.90
   0 -16   4    2.42    0.65
   0  16   4    3.68    0.72
   0 -16   4    1.33    0.62
   0 -16  -4    2.37    1.17
   0 -16  -4   -3.60    3.84
   0  16  -4    3.16    1.02
   0  16   4    2.70    0.75
   0  16   4    5.74    4.75
   0 -16  -4   -4.94    4.07
   0  16   4    7.45    4.27
   0  16   4   -0.16    4.12
   0 -16   4    2.69    0.74
   0  16   4    2.77    0.79
   0  16  -4    2.59    0.86
   0 -16   4    3.77    0.90
   0 -16  -4    0.70    4.04
   2 -16   4    1.40    1.04
  -2  16   4    3.11    0.92
   2  16  -4    1.32    0.84
  -2  16   4    2.35    0.93
   2 -16   4    3.99    0.62
   2 -16   4    0.64    1.05
  -2  16   4   -3.55    5.95
  -2  16   4    4.34    5.99
  -2 -16  -4    4.46    1.09
  -2  16   4   -3.22    5.71
  -2 -16  -4    3.94    1.03
  -2  16   4    2.95    0.85
   2  16  -4    1.79    0.92
   2 -16   4    3.78    1.17
  -2 -16  -4   -0.48    1.18
  -2 -16  -4    5.29    2.29
   2 -16   4    3.34    0.96
   2  16  -4    3.61    0.73
  -2  16   4    3.16    0.71
  -2 -16   4    4.14    0.99
   2  16   4    2.78    0.76
  -2 -16   4    2.74    0.70
   2 -16  -4    2.80    0.82
   2 -16  -4    3.77    0.99
  -2 -16   4    3.06    1.27
   2 -16  -4   -4.77    5.02
   2 -16  -4   -1.82    6.44
  -2  16  -4    4.12    1.11
  -2  16  -4    2.56    0.68
   2 -16  -4    1.67    5.00
   2  16   4    2.68    0.80
  -2  16  -4    2.56    0.77
  -2 -16   4    1.08    1.00
  -2  16  -4    2.11    1.06
   2  16   4    2.29    1.16
  -2  16  -4    1.89    0.98
   2 -16  -4    2.53    1.40
   2  16   4    3.00    0.84
   2  16   4    2.38    0.68
   4 -16   4    0.91    1.09
   4 -16   4    0.21    1.55
   4 -16   4   -0.86    1.38
  -4  16   4    3.61    1.65
   4  16  -4    1.19    1.35
   4  16  -4    0.33    1.12
  -4 -16  -4    1.24    2.58
  -4 -16  -4    0.35    1.84
  -4  16   4    3.12    1.31
  -4 -16  -4    0.56    1.70
   4 -16   4    3.50    1.78
   4 -16   4    2.32    1.08
   4 -16   4    3.26    1.39
  -4  16   4    2.18    1.28
   4  16  -4    3.24    1.12
  -4 -16  -4    3.08    2.71
   4  16   4    1.78    1.16
   4 -16  -4    0.79    1.82
   4  16   4    4.51    1.23
   4  16   4    1.18    1.67
  -4  16  -4    2.37    1.13
   4  16   4    3.59    1.23
  -4 -16   4    1.05    1.31
  -4  16  -4    1.28    1.36
   4  16   4    0.14    1.35
   4 -16  -4    1.26    1.15
  -4 -16   4    2.71    1.31
  -4  16  -4    2.56    1.50
  -4 -16   4    2.97    2.06
  -6 -16  -4    4.61    2.85
   6  16  -4    1.37    2.45
  -6 -16  -4    0.60    3.55
  -6  16   4    2.08    2.48
  -6  16   4    1.78    2.24
  -6  16   4    0.26    2.09
   6  16  -4   -1.85    1.72
   6 -16   4    1.11    1.41
  -6 -16  -4    2.32    3.60
  -6 -16   4    4.41    2.69
  -6  16  -4    0.32    1.34
   6 -16  -4    0.29    1.93
   6 -16  -4    0.89    2.21
   6  16   4    2.45    1.60
  -6  16  -4   -1.42    2.11
  -6 -16   4    1.97    2.92
   6  16   4    1.38    2.07
   6  16   4    3.39    1.94
  -6 -16   4    0.77    1.90
  -6  16  -4    2.98    1.50
  -1 -17  -4    0.68    1.48
  -1  17   4    2.01    0.70
   1 -17   4    0.59    0.66
  -1 -17  -4    0.84    0.98
   1  17  -4    0.75    0.69
   1  17  -4    1.09    0.86
  -1 -17  -4    0.80    0.78
  -1 -17  -4   11.59    5.19
  -1  17   4    1.97    0.69
   1  17  -4    0.92    0.51
   1 -17   4    1.53    0.94
   1 -17   4    2.12    0.77
  -1  17   4    1.52    0.69
  -1  17   4    4.04    5.38
  -1 -17  -4    0.10    4.76
   1  17  -4    0.56    0.62
  -1 -17  -4    1.90    0.76
  -1  17   4    2.39    4.98
  -1 -17  -4    0.73    0.81
  -1  17   4   -3.46    4.81
  -1 -17  -4   -5.63    4.74
   1  17  -4    1.69    0.86
  -1  17  -4    0.88    0.75
  -1 -17   4    0.28    0.78
   1  17   4    0.37    0.51
  -1  17  -4    0.25    0.66
  -1  17  -4    2.32    0.59
   1 -17  -4    7.24    4.52
  -1 -17   4    0.82    0.51
   1  17   4    1.13    0.63
   1  17   4    4.46    5.26
   1 -17  -4    2.68    0.84
   1  17   4    1.73    0.75
   1 -17  -4   -0.52    1.08
  -1  17  -4    2.27    0.68
   1  17   4    0.51    0.56
  -1 -17   4    0.55    0.68
  -1  17  -4    1.25    0.94
   1 -17  -4   -4.24    4.45
   1 -17  -4   -1.46    5.73
   1 -17  -4    1.18    1.28
   1  17   4   -2.26    4.72
  -1 -17   4    1.29    1.08
   1  17   4    0.72    4.62
   3 -17   4    2.00    1.33
   3  17  -4    0.31    1.09
  -3  17   4    1.91    1.01
  -3  17   4    0.73    1.09
  -3 -17  -4    5.21    2.50
  -3 -17  -4   -0.53    1.85
   3  17  -4    1.20    1.06
   3  17  -4    0.52    0.74
   3 -17   4    1.15    1.13
  -3  17   4    1.94    1.03
   3 -17   4    1.41    1.43
  -3  17   4    0.20    0.66
  -3 -17  -4    1.07    1.26
  -3 -17  -4    2.69    1.21
   3 -17   4    0.12    0.98
  -3  17   4    0.27    0.76
   3 -17   4    1.11    1.25
   3 -17   4    1.01    0.80
   3 -17  -4   -1.78    0.96
  -3 -17   4    0.46    1.28
   3  17   4    1.30    0.86
  -3 -17   4   -1.53    1.30
   3 -17  -4    0.18    0.83
   3  17   4    0.41    0.89
  -3  17  -4    1.03    0.95
   3  17   4    0.50    0.78
  -3  17  -4   -0.90    1.08
   3  17   4   -1.27    1.26
  -3 -17   4   -1.26    0.96
  -3  17  -4   -0.07    0.87
  -3  17  -4    0.69    1.12
   3  17   4   -0.19    0.74
   3 -17  -4    0.93    1.52
  -5 -17  -4   -1.93    3.28
   5  17  -4   -2.89    1.73
  -5  17   4   -0.74    1.58
  -5 -17  -4   -3.28    2.68
  -5  17   4   -1.16    1.50
   5  17  -4   -2.49    1.48
   5 -17   4   -1.44    1.61
   5  17  -4    1.53    1.34
  -5 -17  -4    2.05    2.75
  -5  17   4    0.73    2.15
   5 -17   4    4.35    2.23
   5 -17   4   -0.85    1.37
   5 -17   4    0.55    1.29
  -5 -17  -4   -2.29    3.13
  -5 -17   4    3.27    2.60
  -5  17  -4    0.86    1.10
   5  17   4    0.11    1.26
   5  17   4    0.83    1.63
   5 -17  -4    0.27    1.47
   5  17   4    0.74    1.70
  -5 -17   4   -1.59    2.59
  -5 -17   4    1.31    2.13
  -5  17  -4   -1.13    1.21
  -5  17  -4    0.62    1.72
   5 -17  -4    1.14    2.09
  -5 -17   4    0.61    1.65
   0  18   4    3.54    5.11
   0 -18   4   -0.76    0.60
   0 -18  -4    3.43    4.37
   0  18  -4   -0.25    0.99
   0 -18  -4   -0.27    0.65
   0  18  -4   -0.39    0.47
   0  18  -4    0.96    0.62
   0 -18  -4   -0.20    0.63
   0  18   4    0.16    0.57
   0  18  -4    0.06    0.62
   0  18   4   -0.30    0.55
   0 -18   4    0.08    0.86
   0  18   4    2.43    4.93
   0 -18   4    1.32    0.78
   0 -18   4   -0.29    0.52
   0 -18  -4    4.13    4.71
   0  18   4   -0.03    4.88
   0  18  -4    0.77    0.63
   0 -18  -4   -0.50    4.52
   0 -18   4   -0.19    0.60
   0  18   4    1.03    0.68
   0 -18  -4    0.41    1.26
   0  18   4   -0.08    0.48
  -2  18   4   -0.64    0.74
  -2  18   4    0.04    6.45
   2 -18   4    0.74    1.03
  -2  18   4    0.93    0.58
   2  18  -4   -0.24    0.87
  -2  18   4    0.52    0.71
  -2 -18  -4    4.34    2.22
  -2  18   4    0.80    6.73
  -2 -18  -4   -2.03    0.90
   2  18  -4    0.06    0.89
   2  18  -4    0.41    0.59
   2 -18   4   -1.83    1.07
  -2 -18  -4   -1.09    1.29
   2 -18   4   -0.94    0.91
  -2 -18  -4    0.66    0.88
  -2  18   4   -7.74    6.87
  -2  18   4    0.32    0.69
   2 -18   4    0.71    0.92
  -2  18  -4   -0.45    0.72
   2 -18  -4    8.05    8.47
  -2 -18   4   -1.39    1.22
   2  18   4    0.40    0.63
  -2 -18   4    0.42    0.62
   2  18   4    0.42    0.66
   2 -18  -4   -5.74    5.97
  -2 -18   4    0.59    0.77
   2  18   4    0.25    1.23
  -2  18  -4    0.35    0.68
  -2  18  -4    0.88    0.88
  -2  18  -4   -0.30    0.65
  -2  18  -4    0.51    0.87
   2  18   4    1.14    0.68
   2 -18  -4   -0.17    0.82
  -2 -18   4    0.84    1.16
   2 -18  -4   -6.37    6.12
   2 -18  -4    1.77    0.81
   2 -18  -4    0.61    1.33
   2  18   4    0.47    0.68
   4  18  -4    0.56    1.28
  -4 -18  -4   -0.42    2.02
   4 -18   4    0.23    1.52
  -4  18   4   -0.92    1.20
   4 -18   4    0.54    1.49
   4 -18   4   -0.22    1.08
   4 -18   4    1.07    1.75
  -4  18   4   -0.54    1.53
  -4 -18  -4    0.74    1.77
  -4 -18  -4   -1.09    2.79
  -4 -18  -4   -0.54    3.00
   4  18  -4   -0.33    0.93
   4 -18   4    0.04    1.03
   4 -18   4    1.06    1.39
   4  18   4    2.20    1.22
  -4 -18   4    2.18    1.49
   4  18   4    0.72    1.77
   4  18   4    0.43    1.49
  -4  18  -4   -0.27    1.27
  -4  18  -4   -2.42    1.30
  -4 -18   4    0.51    1.35
   4 -18  -4    0.10    1.96
   4 -18  -4    0.32    1.69
   4 -18  -4   -1.52    1.13
   4  18   4   -0.59    1.05
  -4  18  -4   -0.66    0.98
  -4 -18   4   -3.36    1.85
   4  18   4    0.46    1.09
  -6 -18  -4    4.51    3.07
  -6 -18  -4    0.70    3.54
   6  18  -4   -3.90    1.68
   6 -18   4   -0.77    1.40
  -6  18   4   -1.27    2.26
  -6  18   4    1.21    2.53
  -6 -18  -4    3.13    3.45
   6 -18   4    2.31    1.61
   6  18  -4    0.56    2.96
  -6  18   4    3.89    2.10
   6 -18  -4   -1.77    2.33
   6 -18  -4   -2.54    1.99
   6  18   4    1.09    2.13
  -6 -18   4   -0.79    1.85
   6  18   4   -0.26    1.52
  -6  18  -4   -0.86    1.36
  -6 -18   4   -7.07    3.04
  -6 -18   4    1.82    2.75
  -6  18  -4   -1.18    2.14
  -6  18  -4    1.34    1.48
  -1 -19  -4   21.41    2.66
  -1 -19  -4   17.13    3.01
  -1 -19  -4   18.26    6.23
   1  19  -4   22.90    1.92
   1 -19   4   18.73    1.89
   1 -19   4   17.82    2.16
  -1  19   4   21.45    6.53
  -1 -19  -4   22.36    1.94
  -1  19   4   19.98    1.97
  -1 -19  -4   12.39    6.03
   1  19  -4   22.95    2.22
  -1  19   4   26.27    2.05
  -1  19   4   21.67    2.03
   1  19  -4   22.29    1.78
   1  19  -4   22.99    2.12
  -1  19   4   23.94    6.93
   1  19  -4   23.86    2.13
  -1 -19  -4   23.10    2.23
  -1  19   4   17.77    6.48
  -1 -19  -4    8.35    6.23
   1 -19   4   24.17    1.94
   1 -19  -4    6.66    5.53
   1  19   4   19.64    5.90
   1  19   4   21.66    1.80
   1  19   4   23.08    1.92
  -1 -19   4   22.06    2.06
   1  19   4   22.48    2.10
   1  19   4   21.57    1.82
  -1  19  -4   24.07    2.69
  -1  19  -4   24.17    2.22
   1  19   4   23.52    6.18
   1 -19  -4   19.09    7.22
   1 -19  -4   23.57    2.52
  -1  19  -4   22.60    1.95
   1 -19  -4    8.94    5.40
   1 -19  -4   22.19    2.15
  -1  19  -4   21.58    1.76
  -1 -19   4   19.42    2.01
  -1  19  -4   27.54    2.28
  -1 -19   4   23.67    1.75
   1 -19  -4   25.29    2.42
  -1 -19   4   22.39    2.48
   1  19   4   22.13    7.13
   3 -19   4   18.23    2.10
   3 -19   4   15.62    1.48
   3  19  -4   15.31    2.21
  -3 -19  -4   13.64    3.03
  -3  19   4   14.54    1.91
   3 -19   4   14.97    2.31
   3 -19   4   18.37    2.39
   3 -19   4   20.03    2.16
  -3  19   4   14.25    1.53
  -3  19   4   14.14    1.89
   3 -19   4   12.91    2.18
  -3  19   4   14.63    2.16
   3  19  -4    9.03    1.98
  -3  19   4   12.46    1.81
  -3 -19  -4   15.57    2.18
  -3 -19  -4   21.18    2.46
   3  19  -4   16.85    1.72
  -3 -19  -4   18.86    3.83
   3 -19  -4   11.45    1.71
   3 -19  -4   15.57    2.58
  -3 -19   4   17.96    2.24
  -3 -19   4   14.47    2.54
   3  19   4   17.80    2.50
   3 -19  -4   16.92    1.89
   3  19   4   14.36    1.72
   3  19   4   15.29    1.74
  -3  19  -4   14.83    2.18
   3  19   4   17.44    2.13
  -3  19  -4   15.11    1.77
   3  19   4   16.80    1.76
   3 -19  -4   13.83    1.91
  -3  19  -4   15.14    2.26
  -3 -19   4   18.11    2.27
   5  19  -4   10.20    1.89
  -5 -19  -4    9.47    4.20
  -5 -19  -4   10.12    3.16
   5  19  -4   12.50    2.27
  -5 -19  -4    7.15    3.27
  -5  19   4    9.43    2.13
   5 -19   4    9.57    1.92
   5 -19   4    8.99    2.19
  -5  19   4    7.03    1.98
   5 -19   4    9.68    1.72
  -5  19   4    8.70    2.82
   5 -19   4    7.57    1.81
  -5 -19  -4   14.24    3.95
   5  19   4    9.23    2.09
  -5 -19   4   10.56    3.18
  -5 -19   4    8.59    3.21
   5 -19  -4   16.12    3.02
   5  19   4   11.78    2.09
  -5 -19   4   11.42    2.73
  -5  19  -4    5.02    1.69
   5 -19  -4    5.71    1.92
   5  19   4   10.32    2.37
  -5 -19   4    6.67    2.17
  -5  19  -4    8.89    1.86
  -5  19  -4    8.00    2.26
   0 -20   4    0.97    0.59
   0  20   4   -1.04    6.28
   0 -20  -4   -0.59    0.69
   0  20  -4   -0.63    0.53
   0 -20   4   -0.24    0.83
   0  20  -4   -0.39    0.63
   0 -20  -4    0.23    1.33
   0 -20  -4    0.77    0.73
   0  20   4   -0.01    0.66
   0  20   4    0.23    0.59
   0  20   4    6.56    5.57
   0 -20   4    0.20    0.98
   0  20   4    8.57    5.57
   0 -20  -4    4.10    5.10
   0  20   4    0.65    0.72
   0 -20  -4    6.64    5.14
   0 -20   4   -0.96    0.67
   0  20  -4    2.11    1.26
   0  20   4   -0.86    0.51
   0 -20   4    0.65    0.68
   0  20  -4    0.95    0.68
   0 -20  -4   -0.54    5.58
   0  20  -4    0.59    0.78
   2 -20   4   -0.41    1.32
  -2 -20  -4   -2.22    1.71
   2  20  -4   -0.39    0.95
  -2  20   4   -0.36    0.83
  -2 -20  -4    0.16    1.00
  -2 -20  -4    1.70    1.61
   2 -20   4    0.26    0.94
   2 -20   4   -0.21    1.00
   2 -20   4   -0.16    1.14
   2  20  -4    1.27    0.99
  -2  20   4   -0.39    0.56
  -2 -20  -4   -0.84    0.92
   2  20  -4    1.09    0.67
  -2  20   4   -0.19    0.79
  -2  20   4    0.48    0.89
  -2  20  -4   -0.27    0.72
   2  20   4    2.06    1.31
  -2  20  -4   -1.48    0.68
   2 -20  -4   -0.15    0.74
  -2  20  -4    0.25    1.01
  -2  20  -4    0.51    1.15
   2  20   4   -0.81    0.72
  -2 -20   4    0.93    1.12
   2  20   4    0.03    0.63
  -2 -20   4   -0.63    1.20
  -2  20  -4    0.13    0.82
  -2 -20   4    0.68    0.81
   2  20   4    0.08    0.66
   2 -20  -4   -0.71    1.38
   2  20   4    0.03    0.76
   2 -20  -4   -1.23    0.79
   4 -20   4    0.77    1.75
   4 -20   4   -0.71    1.40
   4  20  -4    0.26    1.51
   4 -20   4   -0.53    1.11
   4 -20   4   -1.10    1.05
   4 -20   4   -0.56    1.84
  -4 -20  -4   -1.75    1.69
  -4 -20  -4   -0.05    2.10
  -4  20   4    2.93    1.36
  -4  20   4   -0.31    1.78
   4  20  -4   -0.37    0.99
  -4 -20  -4   -0.24    2.94
  -4 -20  -4   -0.16    3.13
   4  20   4    0.38    1.11
  -4  20  -4   -0.65    1.31
   4  20   4   -0.33    1.18
   4  20   4    0.91    1.07
  -4  20  -4   -0.57    1.24
  -4 -20   4    0.52    1.53
  -4 -20   4   -0.28    2.15
   4 -20  -4   -1.95    2.12
   4  20   4   -0.19    1.79
   4 -20  -4    2.65    1.84
   4 -20  -4    0.22    1.27
  -4  20  -4    1.17    1.10
  -4 -20   4    0.80    1.54
  -6 -20  -4    4.56    3.12
  -6  20   4    0.44    2.51
  -6  20   4   -3.63    2.67
   6 -20   4   -2.15    1.52
  -6 -20  -4    4.21    3.64
  -6 -20  -4   -1.18    3.24
  -6  20   4    1.87    2.15
   6  20  -4    1.75    1.76
   6 -20   4    0.92    1.57
   6 -20  -4    4.83    2.50
   6 -20  -4   -0.25    1.98
  -6 -20   4    2.77    3.02
   6  20   4    0.95    1.72
  -6  20  -4    0.62    2.33
  -6 -20   4   -0.18    1.96
   6  20   4   -0.11    2.23
  -6  20  -4   -2.12    1.35
  -6  20  -4   -0.43    1.34
  -6 -20   4   -4.48    3.10
  -1 -21  -4    3.76    1.96
   1 -21   4    7.37    1.59
  -1 -21  -4    8.45    6.63
   1  21  -4    5.51    1.04
   1 -21   4    6.18    1.44
  -1  21   4    4.53    0.95
  -1  21   4    4.50    1.03
   1  21  -4    4.92    0.85
  -1 -21  -4    5.43    1.11
  -1 -21  -4  -10.67    6.04
  -1 -21  -4    4.83    1.13
   1 -21   4    3.67    0.91
   1 -21   4    4.29    1.11
   1  21  -4    5.83    1.26
   1  21  -4    5.84    1.31
  -1 -21  -4    4.65    1.53
  -1  21   4    5.66    1.05
  -1 -21  -4   -0.03    6.60
   1  21  -4    6.45    1.10
   1 -21  -4    7.45    1.97
  -1 -21   4    6.39    1.58
  -1 -21   4    4.84    1.05
   1  21   4    5.25    0.96
  -1 -21   4    4.43    0.88
   1  21   4   -2.80    5.97
   1  21   4    5.60    0.92
   1 -21  -4    6.53    1.23
  -1  21  -4    6.75    0.94
  -1  21  -4    4.93    1.10
  -1  21  -4    4.95    1.22
  -1 -21   4    3.13    0.76
   1  21   4   13.85    6.58
   1  21   4    5.70    0.96
   1  21   4   -1.67    6.99
   1  21   4    3.91    1.41
  -1  21  -4    5.95    1.08
   1  21   4    5.38    1.15
  -1  21  -4    6.91    1.62
  -3 -21  -4    2.13    1.45
   3 -21   4    4.26    1.35
   3  21  -4    2.31    1.30
  -3 -21  -4    1.98    1.55
   3 -21   4    5.31    1.48
   3  21  -4    4.78    1.50
  -3  21   4    3.65    1.25
  -3  21   4    3.55    0.93
  -3 -21  -4    5.35    3.40
   3  21  -4    4.68    0.98
   3 -21   4    4.62    1.62
  -3  21   4    2.77    1.44
   3 -21   4    1.76    1.58
  -3  21   4    3.85    1.33
   3 -21   4    3.38    1.88
  -3 -21  -4    6.06    2.72
   3 -21  -4    3.48    1.16
  -3  21  -4    3.52    1.14
   3  21   4    3.23    1.91
  -3  21  -4    7.40    1.60
   3 -21  -4    4.26    1.90
   3  21   4    4.27    1.27
   3  21   4    3.55    1.20
   3  21   4    4.86    1.14
   3 -21  -4    3.00    1.12
  -3  21  -4    3.62    1.29
  -3 -21   4    4.67    1.59
   3 -21  -4    2.72    1.22
   3  21   4    2.18    0.92
  -3 -21   4    1.57    1.28
  -3  21  -4    2.86    1.51
  -3 -21   4    2.76    1.75
   5 -21   4    4.28    1.85
  -5 -21  -4   -1.56    2.96
  -5 -21  -4    7.99    3.18
  -5 -21  -4   -2.02    3.21
  -5 -21  -4    0.42    3.90
  -5  21   4    2.54    2.40
  -5  21   4    1.36    1.77
   5  21  -4    4.25    1.58
  -5  21   4   -0.81    1.87
   5 -21   4    0.80    1.40
   5 -21   4    1.28    1.49
   5  21  -4    1.92    1.91
  -5 -21   4    2.28    2.67
  -5 -21   4    2.50    1.88
  -5  21  -4    4.26    1.57
   5  21   4    0.87    1.81
   5 -21  -4    5.18    2.61
  -5  21  -4    0.62    1.39
   5  21   4    3.83    1.85
  -5 -21   4    1.11    3.06
  -5  21  -4    3.68    1.92
   5 -21  -4    2.35    1.88
   5 -21  -4   -1.49    2.17
  -5 -21   4    6.41    2.85
   5  21   4    4.37    1.57
   0  22   4   99.22    7.24
   0 -22   4  121.99    7.18
   0 -22   4  112.74    7.99
   0  22  -4  127.36    7.56
   0  22  -4  128.51    7.86
   0  22   4  124.64    7.61
   0  22  -4  121.22    7.49
   0 -22   4  114.93    7.46
   0 -22   4  116.87    7.35
   0  22   4  120.65    7.29
   0  22  -4  128.29    7.33
   0  22   4  134.17    7.43
   0 -22  -4  122.28    7.26
   0 -22   4  116.99    7.12
   0 -22  -4  118.94    7.74
   0  22  -4  106.43    7.90
   0 -22  -4  126.74    8.57
   2 -22   4  105.34    6.88
  -2 -22  -4   96.84    7.67
   2  22  -4  105.75    6.90
  -2  22   4   87.90    6.49
  -2 -22  -4   91.47    6.83
   2 -22   4  106.20    6.83
   2  22  -4  104.33    6.81
  -2  22   4  105.72    6.37
   2 -22   4  101.55    6.72
   2 -22   4  100.08    6.65
  -2 -22  -4  112.95    8.42
  -2  22   4  105.69    6.57
   2  22  -4  101.75    6.41
   2  22   4  109.28    6.79
  -2 -22   4   92.90    6.53
  -2  22  -4  102.83    7.13
   2  22   4  109.94    6.40
   2  22   4   97.78    6.37
   2 -22  -4  101.13    7.02
  -2  22  -4  101.88    6.88
  -2  22  -4   98.67    7.15
  -2  22  -4   95.79    6.34
  -2 -22   4  102.02    6.70
   2 -22  -4   99.88    6.31
   2  22   4  106.31    6.80
  -2 -22   4  102.71    7.53
  -2  22  -4   98.38    6.36
   2 -22  -4  103.87    6.79
   2  22   4  106.66    6.51
   2 -22  -4  102.78    6.99
  -4 -22  -4   37.48    6.33
   4 -22   4   59.32    4.66
  -4  22   4   41.29    4.95
  -4 -22  -4   61.28    5.34
  -4 -22  -4   63.34    5.32
   4  22  -4   64.02    4.42
   4 -22   4   42.33    5.01
   4  22  -4   56.35    4.94
   4 -22   4   57.94    4.55
  -4 -22  -4   51.93    7.18
   4 -22   4   65.87    5.39
   4 -22  -4   58.47    5.33
   4  22   4   64.28    4.56
  -4 -22   4   54.61    6.05
   4 -22  -4   59.09    4.79
  -4  22  -4   59.31    5.05
  -4  22  -4   54.56    4.62
  -4 -22   4   58.17    4.89
  -4  22  -4   61.13    5.10
  -4 -22   4   55.72    5.18
  -4 -22   4   51.04    5.96
   4 -22  -4   57.94    4.71
   4  22   4   58.25    4.76
   4  22   4   58.77    4.38
  -6 -22  -4   17.61    4.15
  -6 -22  -4   21.69    4.90
  -6  22   4   23.16    4.16
   6 -22   4   33.93    3.23
  -6 -22  -4   25.48    4.23
   6  22  -4   20.51    3.13
  -6  22   4   19.78    4.06
  -6  22   4   24.55    3.37
   6  22   4   22.93    3.39
  -6 -22   4   19.61    3.98
  -6  22  -4   20.20    3.73
  -6  22  -4   22.12    2.93
   6  22   4   24.23    3.06
   6 -22  -4   15.13    3.04
   6 -22  -4   29.51    4.10
  -6  22  -4   23.41    2.91
  -6 -22   4   31.59    3.68
  -6 -22   4   18.88    4.73
   1  23  -4   20.70    1.95
   1 -23   4   19.41    2.16
  -1 -23  -4   24.43    2.85
  -1 -23  -4   23.12    3.65
   1 -23   4   20.83    1.98
   1 -23   4   20.13    2.59
   1  23  -4   21.95    1.86
   1  23  -4   20.18    2.28
   1  23  -4   21.99    2.12
  -1  23   4   24.71    2.10
  -1 -23  -4   21.09    2.30
  -1  23   4   14.45    1.87
  -1 -23  -4   21.60    2.05
   1  23  -4   23.63    2.46
   1 -23   4   18.76    2.33
  -1  23   4   17.84    2.05
  -1  23  -4   21.78    2.26
   1  23   4   20.83    1.97
  -1 -23   4   20.53    2.08
   1  23   4   20.51    1.95
   1 -23  -4   21.29    2.95
   1  23   4   20.34    2.11
  -1  23  -4   21.00    2.01
  -1  23  -4   23.80    2.74
  -1  23  -4   19.28    2.17
  -1  23  -4   20.64    1.85
   1 -23  -4   23.44    2.25
   1  23   4   22.09    1.90
  -1 -23   4   22.21    2.77
   1  23   4   21.41    2.44
   3 -23   4   19.40    2.45
   3  23  -4   10.96    1.65
  -3  23   4   13.10    2.25
   3 -23   4   10.98    2.96
   3  23  -4   11.42    2.06
  -3 -23  -4    8.22    3.44
  -3  23   4   14.62    1.64
   3 -23   4   16.15    2.24
   3 -23   4   22.39    2.99
  -3 -23  -4    7.44    3.54
  -3  23   4   15.75    2.13
  -3 -23  -4   12.52    2.14
   3  23  -4   16.01    2.31
   3 -23   4   14.94    2.00
  -3  23   4   12.00    1.88
   3 -23  -4   12.83    1.86
   3 -23  -4   12.56    1.78
  -3 -23   4   13.05    2.75
   3 -23  -4    8.98    1.71
   3  23   4   11.35    1.82
  -3  23  -4   13.69    2.22
  -3 -23   4    5.86    1.94
  -3  23  -4   11.37    2.32
   3  23   4   13.85    1.80
  -3  23  -4   15.79    1.99
   3  23   4   12.92    2.72
   3  23   4   16.64    2.15
   3 -23  -4   13.70    2.74
  -3 -23   4   14.24    2.19
  -3  23  -4   11.33    2.09
   3  23   4   13.05    1.78
   5  23  -4    4.99    1.72
  -5 -23  -4    0.00    4.02
   5 -23   4    6.42    2.03
  -5 -23  -4    2.76    2.90
  -5  23   4    5.10    2.22
  -5  23   4    7.74    2.91
  -5  23   4    6.22    2.17
  -5 -23  -4    4.47    3.36
   5 -23   4    7.98    1.82
  -5 -23  -4    1.37    3.28
   5  23  -4    5.53    2.21
  -5  23  -4    8.86    2.06
   5  23   4    6.58    1.79
   5 -23  -4    3.68    2.78
  -5  23  -4    3.07    1.52
   5 -23  -4    4.53    1.84
  -5 -23   4    8.04    2.98
  -5 -23   4    7.03    3.55
  -5 -23   4    4.00    3.15
  -5 -23   4   12.86    2.51
  -5  23  -4    5.27    2.40
   5  23   4    5.72    2.03
   5  23   4    1.87    1.93
   0  24   4   -1.46    0.77
   0 -24  -4    0.21    0.88
   0 -24  -4   -0.38    0.75
   0 -24   4    0.94    0.76
   0  24  -4    0.57    1.39
   0 -24   4   -0.57    1.33
   0  24  -4   -0.21    0.63
   0  24  -4    0.67    0.83
   0 -24   4   -0.25    0.82
   0  24   4   -0.37    0.84
   0  24   4   -0.13    0.83
   0 -24   4    0.35    0.85
   0  24  -4   -0.50    0.95
   0  24  -4    0.63    0.75
   0 -24   4    1.46    1.09
   0 -24  -4    1.16    1.58
  -2  24   4    0.63    0.74
  -2  24   4    0.09    1.16
   2 -24   4   -3.40    1.36
   2 -24   4    2.19    1.56
   2  24  -4   -0.18    0.93
   2  24  -4   -0.04    0.96
  -2 -24  -4   -1.32    2.20
   2 -24   4   -0.60    1.18
  -2  24   4    0.12    1.06
   2 -24   4   -1.54    1.62
  -2  24   4    1.83    1.10
  -2 -24  -4    1.07    1.09
   2 -24   4    0.48    1.39
  -2 -24  -4    1.48    1.84
   2  24  -4   -0.58    0.71
   2 -24  -4    1.80    0.86
  -2 -24   4    0.84    1.75
  -2  24  -4    0.48    0.88
  -2  24  -4    1.32    1.07
   2 -24  -4    2.57    1.42
   2  24   4    1.05    0.99
  -2  24  -4   -0.16    1.22
  -2  24  -4    0.26    1.12
  -2  24  -4    0.65    0.95
   2  24   4    1.19    0.80
   2  24   4    0.45    1.01
   2  24   4    0.56    0.70
   2  24   4    1.52    2.36
  -2 -24   4    0.19    1.07
   2 -24  -4   -0.43    1.48
   2 -24  -4    0.86    0.98
  -2 -24   4    0.44    1.02
  -4  24   4    0.95    1.42
   4 -24   4   -3.47    1.29
   4  24  -4   -0.94    1.08
  -4 -24  -4    0.67    2.59
   4 -24   4   -0.85    1.69
  -4 -24  -4   -2.49    3.36
  -4 -24  -4    0.99    1.97
   4  24  -4    1.19    1.65
  -4 -24  -4   -2.55    3.35
   4 -24   4   -0.67    2.38
  -4  24   4    0.60    2.40
   4  24   4    2.43    1.33
   4 -24  -4   -2.08    1.95
   4  24   4   -0.59    1.11
  -4 -24   4   -1.09    2.04
   4  24   4   -0.59    1.48
   4 -24  -4   -1.09    1.14
  -4 -24   4   -0.52    1.84
  -4  24  -4   -1.48    1.13
  -4  24  -4    2.05    1.48
  -4  24  -4    1.03    1.68
   4 -24  -4   -1.63    2.30
  -4 -24   4    1.33    2.87
  -4  24  -4    1.25    1.57
  -4 -24   4    1.77    2.37
  -6 -24  -4   -0.06    3.90
   6  24  -4    2.17    1.96
  -6  24   4    6.18    2.32
  -6 -24  -4    6.80    3.72
  -6 -24  -4   -0.51    3.64
   6 -24   4   -0.08    1.77
  -6  24  -4    0.07    1.43
   6 -24  -4   -3.94    2.85
  -6 -24   4   -3.28    2.18
   6 -24  -4    1.87    2.31
   6  24   4   -2.42    2.50
   6  24   4   -0.72    1.84
  -6 -24   4    2.69    3.20
  -6 -24   4   -0.73    3.59
  -6  24  -4    1.95    1.65
  -6  24  -4    0.38    2.80
  -1  25   4    4.42    1.26
  -1  25   4    5.33    1.18
   1  25  -4    4.81    1.62
   1 -25   4    3.55    1.78
   1 -25   4    4.03    1.28
   1  25  -4    6.83    1.25
  -1  25   4    4.72    1.66
  -1 -25  -4    6.66    1.28
   1 -25   4    6.10    1.23
   1  25  -4    5.42    1.05
   1 -25   4    7.98    1.50
  -1 -25  -4    7.91    1.94
   1 -25   4    3.45    1.73
  -1 -25  -4    6.41    1.44
   1  25  -4    3.01    1.09
  -1 -25  -4    4.26    2.17
   1  25  -4    7.34    1.52
  -1  25   4    5.52    1.11
  -1 -25   4    5.11    1.46
  -1  25  -4    8.53    1.24
   1  25   4    7.38    1.36
   1  25   4    6.36    1.16
   1  25   4    6.03    1.14
   1 -25  -4    7.26    2.17
  -1  25  -4    4.44    1.72
  -1 -25   4    6.14    1.82
  -1  25  -4    6.81    1.45
   1  25   4    5.23    1.66
  -1 -25   4    8.49    1.36
  -1  25  -4    7.50    1.09
   1 -25  -4    6.66    1.36
  -1  25  -4    6.69    1.41
  -3 -25  -4    3.19    3.79
   3  25  -4    2.35    1.50
   3 -25   4    7.85    2.03
  -3  25   4    3.83    1.43
  -3 -25  -4    3.16    1.60
   3  25  -4    4.05    1.14
   3 -25   4    2.71    2.01
   3 -25   4    4.72    1.59
  -3  25   4    5.78    2.11
   3  25  -4    4.66    1.64
  -3 -25  -4    0.14    2.77
   3 -25   4    2.02    1.76
  -3  25   4    5.21    1.11
  -3 -25   4    3.43    1.62
   3  25   4    1.61    1.33
  -3 -25   4    3.73    1.88
  -3 -25   4   -0.75    2.24
  -3  25  -4    4.55    1.35
  -3  25  -4    6.79    1.45
  -3 -25   4    4.04    2.46
   3  25   4    3.90    1.24
   3 -25  -4    5.97    1.56
  -3  25  -4    2.62    1.53
   3  25   4    4.54    1.18
   3 -25  -4    4.97    1.45
  -3  25  -4    0.55    1.58
   3 -25  -4    3.72    2.17
   5 -25   4    0.90    2.08
   5  25  -4    1.05    1.57
  -5 -25  -4    0.53    3.93
  -5 -25  -4    3.39    2.80
  -5  25   4   -0.77    2.35
   5 -25   4    0.95    1.55
  -5  25   4   -0.07    1.84
   5 -25  -4    2.39    2.79
   5 -25  -4    0.50    1.61
  -5 -25   4   -0.91    1.90
  -5  25  -4    2.95    1.63
   5  25   4    3.13    1.74
  -5 -25   4    0.78    2.95
  -5  25  -4    2.43    1.50
  -5  25  -4    2.63    2.33
   5  25   4    7.74    2.31
  -5 -25   4    4.53    3.45
   0  26   4   -1.35    0.92
   0  26  -4    4.63    1.74
   0  26  -4    1.04    1.16
   0  26  -4   -0.09    0.82
   0  26  -4    1.08    0.81
   0 -26   4    0.22    1.70
   0 -26  -4    0.42    0.82
   0  26   4   -0.48    0.90
   0 -26  -4    0.35    0.95
   0 -26   4    1.14    0.89
   0 -26   4    0.93    0.92
   0 -26   4    1.26    1.19
   0  26  -4    0.43    0.84
   0 -26  -4    0.61    1.77
  -2  26   4    0.98    1.05
   2 -26   4   -0.02    1.52
  -2 -26  -4   -1.06    2.38
  -2 -26  -4    0.17    1.19
   2 -26   4    0.56    1.81
  -2  26   4    0.00    0.81
  -2 -26  -4   -0.77    1.79
  -2  26   4    0.97    1.16
   2  26  -4   -1.12    1.08
   2  26  -4   -0.64    0.78
   2 -26   4   -0.84    1.54
   2 -26   4    1.55    1.30
   2  26  -4    0.85    1.24
   2  26   4   -0.21    0.74
  -2  26  -4    0.99    0.98
  -2  26  -4    0.12    1.34
   2  26   4   -1.24    1.00
   2 -26  -4    0.59    0.83
  -2  26  -4   -0.51    1.13
  -2 -26   4   -0.44    1.92
  -2 -26   4   -0.74    1.18
   2 -26  -4    1.67    1.09
  -2  26  -4    1.23    1.39
  -2  26  -4   -0.34    1.08
   2  26   4   -1.11    1.18
   2  26   4    0.96    0.88
   2 -26  -4    2.10    1.74
  -2 -26   4    2.71    0.93
   2 -26  -4   -0.61    1.61
  -4 -26  -4    1.06    2.03
   4  26  -4    0.14    1.93
   4  26  -4   -0.83    1.13
  -4  26   4    1.69    1.65
  -4 -26  -4    2.73    4.01
  -4 -26  -4   -5.87    3.76
   4 -26   4    1.50    2.59
  -4  26   4   -1.37    1.51
   4 -26   4    1.04    2.00
   4 -26   4   -0.74    1.46
   4 -26  -4   -0.24    1.33
   4 -26  -4   -0.29    2.08
   4 -26  -4    2.95    2.73
  -4 -26   4    1.81    3.01
   4  26   4   -0.70    1.43
   4  26   4   -1.84    1.51
  -4 -26   4    2.57    2.30
  -4 -26   4    0.77    1.81
  -4  26  -4   -0.99    1.14
  -4  26  -4    1.65    1.59
  -4 -26   4   -2.38    2.69
  -4  26  -4    1.70    1.84
  -4  26  -4   -0.04    1.65
   4  26   4   -1.64    1.17
  -6 -26  -4    0.50    4.19
  -6 -26  -4    0.09    3.48
  -6  26   4    5.99    2.39
   6  26  -4   -2.22    1.97
   6 -26   4    1.32    1.75
  -6 -26   4    0.40    2.45
  -6  26  -4   -0.30    1.63
   6  26   4   -1.79    1.95
  -6 -26   4    3.99    4.74
  -6  26  -4   -2.97    2.94
  -6  26  -4    0.80    1.59
   6 -26  -4    4.09    2.46
  -6 -26   4   -0.02    3.86
   6 -26  -4    2.40    3.06
   6  26   4   -1.53    2.71
  -1 -27  -4    2.28    1.92
   1 -27   4    5.10    1.74
  -1 -27  -4    3.96    1.28
   1 -27   4    3.19    1.21
   1 -27   4    1.42    2.64
  -1  27   4    3.48    1.02
  -1  27   4    3.09    1.12
   1 -27   4    3.99    1.26
  -1  27   4    1.39    1.08
   1  27  -4    1.66    1.78
   1 -27   4    3.70    1.32
  -1 -27  -4    2.26    1.15
   1 -27   4    3.60    1.52
   1  27  -4    1.29    0.83
   1  27  -4    4.10    1.21
   1 -27   4    5.13    2.10
   1  27  -4    2.14    1.17
  -1 -27  -4    2.61    1.73
   1  27  -4    3.06    1.05
  -1  27  -4    3.21    1.27
   1 -27  -4    4.30    2.02
   1  27   4    2.53    1.19
  -1  27  -4    4.03    1.68
  -1 -27   4    3.95    1.22
   1  27   4    2.20    0.89
  -1 -27   4   -1.19    1.85
   1 -27  -4    2.06    0.96
  -1 -27   4    1.52    1.40
   1  27   4    1.76    1.13
  -1  27  -4    5.75    1.20
  -1  27  -4    1.70    1.10
  -1  27  -4    3.09    0.99
   3  27  -4    5.13    1.62
   3 -27   4   -1.45    1.49
  -3 -27  -4   -1.52    3.58
   3 -27   4    0.93    2.10
  -3 -27  -4    3.06    2.78
  -3  27   4    0.30    1.28
   3 -27   4    3.31    2.29
   3  27  -4    2.17    1.04
   3  27  -4    2.72    1.62
   3 -27   4    1.03    1.93
  -3  27   4    3.14    1.04
  -3 -27  -4    1.41    1.59
  -3  27  -4    3.52    1.38
  -3 -27   4    3.12    1.90
   3  27   4    1.08    1.06
  -3 -27   4    3.45    2.73
   3  27   4    0.32    1.14
   3 -27  -4    3.50    1.50
   3 -27  -4    0.24    2.20
  -3 -27   4    2.82    2.53
  -3  27  -4    0.98    1.56
  -3 -27   4    3.06    1.51
   3  27   4    2.71    1.40
   3 -27  -4    4.45    1.50
  -3  27  -4    1.23    1.31
  -3  27  -4    2.69    1.57
  -5 -27  -4   -2.76    4.19
   5 -27   4    4.15    1.90
  -5  27   4    1.10    2.57
  -5  27   4   -0.49    2.06
  -5 -27  -4    2.61    2.79
   5  27  -4    3.14    1.75
   5  27   4    1.72    2.19
  -5  27  -4    1.92    1.59
   5  27   4    1.53    1.74
  -5  27  -4    3.88    2.64
  -5  27  -4    0.81    1.61
   5 -27  -4    2.61    1.88
   5 -27  -4    2.26    2.90
  -5 -27   4    4.32    3.34
  -5 -27   4   -1.24    2.13
  -5 -27   4    1.94    3.46
   0  28   4   -0.23    1.11
   0 -28   4    3.34    3.09
   0 -28   4    1.08    2.15
   0 -28   4    1.43    1.07
   0 -28   4    2.06    1.18
   0  28   4    0.83    1.15
   0 -28  -4    1.11    0.94
   0 -28  -4    1.55    1.13
   0  28  -4    0.81    1.83
   0  28  -4    1.29    1.06
   0  28  -4    0.91    0.77
   0 -28   4    3.09    1.49
   0 -28  -4    2.14    1.96
   0  28  -4    4.58    1.24
   0  28  -4    0.48    0.99
  -2 -28  -4   -1.09    2.04
  -2  28   4    0.51    1.16
   2 -28   4    3.55    1.89
   2 -28   4    0.72    1.96
   2 -28   4   -4.13    2.05
  -2  28   4    0.52    0.87
  -2  28   4   -3.43    1.38
   2  28  -4   -0.10    1.32
   2  28  -4    0.84    0.89
   2 -28   4    1.72    1.56
  -2 -28  -4    0.25    1.17
  -2 -28  -4   -0.87    2.51
   2  28  -4   -1.19    1.30
  -2  28  -4    1.34    1.38
  -2 -28   4    2.15    2.30
  -2  28  -4    0.57    1.43
   2 -28  -4    1.73    1.02
  -2 -28   4    1.96    3.01
   2 -28  -4    0.47    1.10
  -2  28  -4    1.80    1.14
   2 -28  -4    1.06    1.74
  -2  28  -4    2.18    1.06
  -2 -28   4    0.64    0.89
   2  28   4    0.69    0.87
  -2 -28   4    0.17    1.41
   2 -28  -4    3.26    1.89
  -2  28  -4    1.74    1.27
   2  28   4    1.77    1.28
   4 -28   4    0.43    2.26
  -4  28   4   -0.67    1.82
   4  28  -4    0.71    1.89
  -4 -28  -4   -0.55    4.18
   4 -28   4   -0.50    1.61
  -4 -28  -4   -2.85    2.00
   4  28  -4    1.30    1.30
  -4 -28  -4    0.22    4.08
  -4  28   4   -0.10    1.70
  -4 -28   4   -6.22    3.27
  -4 -28   4    2.59    2.86
  -4  28  -4   -3.10    1.59
   4 -28  -4   -2.01    2.70
   4  28   4    0.05    1.35
  -4 -28   4    2.36    3.27
   4  28   4    2.24    1.85
   4  28   4    3.05    1.64
  -4  28  -4    1.43    1.69
   4 -28  -4    1.03    1.45
  -4 -28   4    4.52    2.00
  -4  28  -4   -1.39    2.00
   4 -28  -4    1.61    2.21
  -4  28  -4    1.56    1.44
  -1  29   4    3.92    1.37
   1  29  -4    4.31    1.31
   1  29  -4    2.60    1.98
  -1 -29  -4    4.89    2.39
   1  29  -4    3.49    1.23
   1  29  -4    4.58    1.53
  -1  29   4    5.47    1.37
   1  29  -4    3.87    1.09
   1 -29   4    3.47    1.64
  -1 -29  -4    2.41    1.29
  -1 -29  -4    5.29    1.45
   1 -29   4    3.84    1.38
  -1  29   4    4.18    1.05
   1 -29   4    4.78    2.00
  -1  29  -4    2.72    1.21
  -1 -29   4    2.78    1.61
   1 -29  -4    4.58    2.24
  -1 -29   4    0.76    2.40
   1  29   4    3.23    1.30
   1 -29  -4    3.55    1.22
  -1  29  -4    3.21    1.41
  -1  29  -4    3.67    1.89
   1  29   4    5.03    1.13
  -1  29  -4    4.96    1.20
  -1 -29   4    5.16    3.77
  -1  29  -4    3.68    1.40
   1  29   4    0.56    1.44
  -3  29   4    4.66    1.58
   3 -29   4    0.47    2.30
  -3 -29  -4    5.75    3.29
   3 -29   4    3.36    1.88
   3  29  -4    5.08    1.81
   3 -29   4   10.29    2.89
  -3 -29  -4   -0.87    3.64
  -3  29   4    3.38    1.17
   3  29  -4    3.28    1.19
  -3 -29  -4    5.15    1.86
  -3  29  -4    4.74    1.44
  -3 -29   4    3.15    3.15
  -3  29  -4    3.21    1.81
  -3  29  -4    2.48    1.47
  -3 -29   4    3.34    1.44
   3  29   4    1.31    1.07
   3 -29  -4    0.72    2.32
   3 -29  -4    1.37    1.18
   3  29   4    3.56    1.53
   3 -29  -4    2.88    1.70
   3  29   4    3.08    1.31
  -3 -29   4    0.21    3.01
  -3  29  -4    3.44    1.80
   5  29  -4    0.73    1.63
  -5 -29  -4    3.80    4.28
  -5  29   4    0.96    2.07
   5 -29   4    1.44    1.75
  -5 -29  -4    1.00    3.19
  -5 -29   4    6.40    3.92
   5 -29  -4   -0.22    3.16
   5  29   4    2.99    2.57
   5 -29  -4    0.76    1.84
  -5 -29   4    6.32    2.51
  -5  29  -4    1.15    1.71
   5  29   4    0.27    1.92
  -5  29  -4    2.78    2.97
  -5  29  -4   -3.32    1.47
   0  30   4    2.56    1.29
   0  30  -4    0.78    1.01
   0  30   4   -2.03    1.34
   0 -30  -4    1.44    2.06
   0  30  -4   -0.50    2.00
   0 -30  -4    1.32    1.15
   0  30  -4    0.70    1.12
   0  30  -4    1.66    1.27
   0 -30   4   -0.35    1.28
   0 -30   4   -4.37    2.75
   0  30  -4    1.02    0.88
   0 -30   4    3.70    3.67
   0 -30  -4    0.36    0.97
   0 -30   4    3.85    1.49
   2 -30   4    1.94    2.35
   2  30  -4    3.03    1.52
  -2 -30  -4    3.36    2.20
  -2 -30  -4   -0.14    2.82
   2  30  -4   -1.01    0.90
   2  30  -4    0.98    1.38
  -2 -30  -4   -0.25    1.16
  -2  30   4    2.07    1.29
   2 -30   4   -1.70    1.87
  -2  30   4    1.92    1.01
   2 -30   4    1.43    2.84
   2 -30  -4    0.57    1.18
  -2  30  -4   -0.01    1.52
  -2 -30   4    3.94    2.93
  -2 -30   4    2.08    3.67
   2 -30  -4   -3.56    1.82
   2  30   4    0.37    1.33
  -2  30  -4    1.40    1.42
  -2  30  -4    2.55    1.17
  -2  30  -4    0.37    1.22
   2 -30  -4    2.71    2.06
   2  30   4    0.34    0.91
  -2  30  -4    1.17    1.64
  -4  30   4   -0.53    1.69
  -4 -30  -4    3.41    4.78
   4 -30   4    5.07    2.46
   4  30  -4    2.37    2.81
   4  30  -4    0.54    1.29
  -4 -30  -4   -1.55    2.11
  -4 -30  -4   -0.40    4.22
   4 -30   4   -1.06    1.79
  -4  30   4    1.02    2.08
   4  30   4    1.28    2.00
  -4 -30   4   -3.11    3.31
  -4  30  -4    1.17    2.28
  -4 -30   4    5.63    4.20
   4 -30  -4   -0.90    2.81
  -4  30  -4    0.73    1.40
   4  30   4    1.75    1.62
   4 -30  -4    3.04    2.52
  -4  30  -4    1.78    1.75
  -4 -30   4    2.80    1.83
   4 -30  -4    0.67    1.48
   4  30   4    1.29    1.46
  -4  30  -4   -1.40    1.71
  -1  31   4   10.97    1.97
   1  31  -4    5.15    1.87
   1  31  -4   10.61    1.58
   1  31  -4   10.58    1.76
   1 -31   4   11.04    1.85
  -1 -31  -4   10.96    1.81
  -1  31   4   10.01    1.77
  -1  31   4   13.61    1.80
  -1 -31  -4    9.08    1.93
  -1 -31  -4   16.34    3.41
   1 -31   4   15.16    2.22
   1  31  -4   11.29    2.59
   1  31  -4   12.15    1.80
  -1  31  -4    8.99    1.89
   1  31   4   10.93    1.88
  -1  31  -4   11.61    2.02
  -1 -31   4   13.11    2.33
  -1 -31   4   11.99    3.52
   1 -31  -4    9.03    1.83
   1 -31  -4   15.35    3.07
  -1 -31   4   12.07    4.37
  -1  31  -4    7.76    1.63
  -1  31  -4   10.44    2.42
  -1  31  -4   13.58    1.78
   3  31  -4    5.51    1.38
   3 -31   4    0.85    2.79
  -3 -31  -4    6.78    3.54
  -3  31   4    6.51    1.99
  -3  31   4    7.83    1.40
  -3  31   4    4.95    1.74
  -3 -31  -4    7.55    2.05
   3 -31   4    4.55    2.16
  -3 -31  -4    4.39    4.13
   3  31  -4    1.49    2.03
   3 -31  -4    7.00    1.74
  -3 -31   4    2.24    3.53
   3  31   4   10.36    2.21
   3 -31  -4    8.36    2.12
  -3  31  -4    5.97    2.07
  -3  31  -4    9.18    2.37
  -3 -31   4    6.32    1.51
   3 -31  -4    6.34    2.65
  -3  31  -4    7.05    1.64
  -3  31  -4    4.16    1.65
   3  31   4    7.65    1.57
   3  31   4    6.68    1.41
  -3 -31   4   12.25    4.25
  -5  31   4    2.69    2.18
   5 -31   4    3.52    2.06
   5  31  -4    6.07    1.97
  -5 -31  -4    2.58    4.44
  -5 -31  -4    0.33    3.17
   5  31   4   -1.22    2.77
   5 -31  -4    4.72    3.66
  -5  31  -4    6.15    3.22
   5  31   4    5.25    2.00
  -5 -31   4    2.21    2.28
   5 -31  -4    3.63    2.02
  -5  31  -4    2.74    1.89
  -5 -31   4   -5.12    3.82
  -5  31  -4    1.39    1.76
   0 -32   4   54.62    6.74
   0  32   4   59.92    4.61
   0  32  -4   63.31    5.86
   0 -32  -4   67.30    4.51
   0 -32  -4   61.87    5.93
   0  32  -4   66.51    4.63
   0  32   4   62.56    5.34
   0  32   4   57.66    4.50
   0 -32  -4   61.52    4.78
   0  32  -4   64.05    4.98
   0  32  -4   60.20    4.51
   0 -32   4   50.93    4.27
   0  32  -4   61.70    4.36
   0 -32   4   68.60    4.83
   0 -32   4   64.63    7.05
  -2 -32  -4   48.92    4.35
  -2 -32  -4   44.52    6.26
  -2  32   4   52.96    3.86
   2 -32   4   52.16    4.72
   2  32  -4   54.56    4.53
  -2 -32  -4   50.02    5.43
   2  32  -4   47.16    4.38
   2  32  -4   51.85    3.90
   2 -32  -4   48.56    4.14
  -2  32  -4   50.98    4.46
  -2 -32   4   44.20    7.27
  -2  32  -4   49.22    4.72
  -2  32  -4   40.94    3.97
  -2 -32   4   36.58    5.94
   2 -32  -4   57.94    5.01
   2  32   4   56.09    3.93
  -2  32  -4   55.26    4.79
   2  32   4   52.43    4.23
   2 -32  -4   49.03    4.92
  -2  32  -4   51.50    4.01
  -4  32   4   29.03    3.83
   4  32  -4   33.24    3.12
   4 -32   4   32.15    4.19
  -4 -32  -4   22.06    5.77
  -4 -32  -4   23.21    3.74
   4 -32   4   25.02    3.15
  -4 -32   4   43.09    6.12
   4 -32  -4   18.76    3.88
   4  32   4   32.48    3.86
   4 -32  -4   23.19    4.07
  -4  32  -4   28.48    3.43
   4 -32  -4   30.63    3.43
  -4  32  -4   26.81    3.32
  -4 -32   4   17.83    2.63
  -4  32  -4   30.89    4.00
  -4  32  -4   35.06    3.81
   1 -33   4    3.59    1.59
  -1  33   4    3.69    2.25
  -1  33   4    0.56    1.01
   1  33  -4    4.92    2.53
   1  33  -4    1.92    1.61
  -1 -33  -4    2.55    1.48
  -1  33   4    2.83    1.57
   1  33  -4    2.14    1.37
   1 -33   4    7.95    2.11
  -1 -33  -4    5.51    1.67
  -1 -33  -4    7.34    2.98
   1  33  -4    4.48    1.20
  -1  33  -4    2.20    1.17
  -1  33  -4    2.45    2.24
  -1  33  -4    2.52    1.60
  -1 -33   4    2.27    4.55
  -1  33  -4    3.87    1.49
  -1 -33   4   -4.84    3.74
  -1  33  -4    3.30    1.56
  -1 -33   4    2.82    2.00
   1 -33  -4    1.14    1.30
   1 -33  -4   -1.99    2.34
   1  33   4    1.85    1.57
   3  33  -4   -1.89    1.96
   3 -33   4    3.77    3.33
  -3 -33  -4   -4.63    3.91
  -3 -33  -4    3.26    3.62
  -3  33   4    2.38    1.88
  -3  33   4    3.57    1.38
   3 -33   4    8.93    2.33
  -3 -33  -4    3.72    1.73
   3  33  -4    2.00    1.22
   3  33   4    2.61    1.25
  -3  33  -4    6.29    1.66
   3 -33  -4    2.38    2.61
  -3 -33   4    8.21    4.21
  -3  33  -4   -0.46    1.98
   3 -33  -4    1.00    1.39
  -3 -33   4    6.85    4.34
  -3  33  -4    0.36    2.03
  -3  33  -4    3.10    1.75
   3 -33  -4    3.95    2.04
   3  33   4    3.33    1.80
   5 -33   4    3.14    2.16
   5  33  -4    2.36    1.93
  -5 -33  -4   -1.40    4.40
  -5 -33  -4    0.45    3.41
  -5  33   4    3.66    2.29
   5 -33  -4    5.82    3.61
  -5  33  -4    3.18    1.96
  -5  33  -4    4.91    4.24
  -5 -33   4   -3.25    4.12
   5  33   4    8.28    3.44
   5  33   4   -2.30    1.95
   5 -33  -4   -1.99    2.02
  -5  33  -4    1.34    1.68
  -5 -33   4    1.57    2.22
   0  34   4   -0.81    0.98
   0  34  -4    0.65    1.36
   0  34  -4    0.10    2.32
   0 -34  -4    2.15    1.46
   0  34  -4   -1.11    0.95
   0 -34   4   -1.71    4.22
   0  34  -4    0.92    1.43
   0 -34  -4   -0.15    1.16
   0 -34   4    3.66    1.92
   0  34  -4    0.60    1.54
   0 -34  -4    6.85    2.67
   0 -34   4    1.25    1.76
   0  34   4    2.60    1.62
  -2 -34  -4    1.87    2.91
   2 -34   4    1.92    2.28
   2 -34   4    2.01    1.89
  -2 -34  -4    1.06    1.45
   2  34  -4   -0.65    1.70
   2  34  -4    1.16    1.71
  -2 -34  -4   -3.07    3.17
  -2  34   4   -1.64    1.63
   2 -34   4   -0.31    2.54
  -2  34   4    0.97    1.13
   2  34  -4   -0.49    1.08
  -2  34  -4    1.81    1.58
  -2  34  -4   -0.93    1.77
  -2  34  -4    0.10    1.81
  -2 -34   4   -3.85    4.08
   2 -34  -4    4.18    2.48
   2 -34  -4    4.38    2.48
  -2  34  -4    0.75    1.70
   2  34   4    1.28    1.03
   2  34   4   -2.52    1.68
   2 -34  -4    0.25    1.16
  -2 -34   4    5.31    5.19
  -2  34  -4   -0.22    1.20
  -4 -34  -4   -1.25    5.04
   4 -34   4   -4.52    2.03
  -4  34   4    0.67    2.11
  -4 -34  -4    2.22    2.43
   4  34  -4    0.25    1.50
  -4  34  -4    0.78    1.66
   4  34   4   -2.02    2.38
  -4 -34   4   -0.20    1.76
   4 -34  -4    7.09    3.26
   4 -34  -4    1.47    1.73
  -4  34  -4   -3.40    2.76
   4  34   4   -1.34    1.57
  -4  34  -4   -3.01    1.92
  -4 -34   4    5.40    4.48
  -4  34  -4    0.20    1.95
   1 -35   4    6.23    2.40
   1  35  -4    6.59    4.35
  -1 -35  -4    3.83    1.81
   1  35  -4    4.55    1.74
  -1  35   4    6.30    1.28
  -1  35   4    5.70    1.91
  -1 -35  -4    3.24    1.71
   1  35  -4    8.37    1.48
   1  35  -4    3.05    1.91
   1 -35   4    8.08    1.98
  -1 -35  -4    6.00    3.05
  -1 -35   4   14.39    5.47
  -1 -35   4    8.25    5.12
  -1  35  -4    4.11    1.80
  -1 -35   4    4.66    2.31
  -1  35  -4    5.24    1.78
   1 -35  -4    5.80    2.86
  -1  35  -4    6.66    2.03
  -1  35  -4    5.83    2.33
   1 -35  -4    2.78    1.34
   1  35   4    5.61    1.95
  -1  35  -4    4.62    1.34
   1  35   4    5.65    1.40
  -3  35   4    4.48    1.49
  -3 -35  -4   -0.30    4.34
  -3  35   4    2.59    2.12
   3 -35   4    5.78    2.47
  -3 -35  -4   10.01    4.28
   3  35  -4    4.68    1.44
  -3 -35  -4    7.92    2.26
   3 -35  -4    3.03    1.61
  -3  35  -4    5.46    1.67
  -3  35  -4    1.09    1.83
   3  35   4    4.19    1.50
  -3  35  -4    3.23    2.12
  -3 -35   4   10.24    5.23
   3  35   4    1.36    2.12
   3 -35  -4   -1.01    2.05
  -3  35  -4   -2.31    2.43
   3 -35  -4    2.79    2.85
  -3 -35   4   -4.13    5.08
   3 -35  -4    5.70    2.20
   0  36   4    1.33    1.04
   0  36  -4    1.23    1.77
   0  36   4   -1.10    1.84
   0  36  -4    0.14    1.03
   0 -36  -4    2.03    2.52
   0 -36  -4   -0.35    1.28
   0  36  -4    2.72    1.66
   0 -36   4    1.49    2.18
   0  36  -4   -3.59    2.44
   0 -36  -4    1.00    1.61
   0  36  -4   -0.01    1.49
   2  36  -4    0.30    1.15
   2 -36   4    6.58    2.64
  -2  36   4   -0.62    1.16
   2 -36   4   -2.04    1.97
  -2  36   4   -1.47    1.87
  -2 -36  -4    0.05    3.11
   2  36  -4    1.08    1.88
  -2 -36  -4   -2.15    1.38
   2  36  -4    1.73    1.77
  -2 -36  -4    0.54    3.44
  -2  36  -4   -3.55    1.65
   2  36   4    2.71    2.02
  -2 -36   4   -6.02    5.12
  -2  36  -4    1.97    1.36
   2 -36  -4    0.01    2.49
  -2  36  -4   -1.37    1.88
  -2 -36   4   -0.32    5.28
  -2  36  -4    0.07    2.04
   2 -36  -4    0.89    1.29
  -2  36  -4   -1.30    1.96
  -4 -36  -4   -0.37    2.60
  -4 -36  -4   -8.56    4.85
  -4  36   4    1.29    2.12
   4  36  -4   -0.01    1.53
   4 -36   4   -3.45    2.15
  -4  36  -4    1.01    2.16
  -4  36  -4   -2.60    1.99
   4 -36  -4    0.12    1.76
  -4 -36   4   -0.12    4.68
  -4  36  -4    1.22    1.75
   4  36   4   -1.52    1.71
   4  36   4   -0.59    2.97
   4 -36  -4    5.89    3.81
   1  37  -4   -1.80    1.06
  -1 -37  -4    3.23    3.19
  -1 -37  -4    2.38    1.89
  -1 -37  -4    0.72    1.36
   1 -37   4    2.45    1.97
   1  37  -4   -1.23    1.72
   1 -37   4   -3.08    2.36
  -1  37   4    3.26    2.34
   1  37  -4   -2.79    1.86
  -1  37   4   -0.44    1.16
  -1  37  -4    3.50    2.03
   1  37   4   -0.50    2.19
   1 -37  -4   -2.92    1.55
   1 -37  -4    1.60    1.31
   1  37   4   -0.85    1.13
  -1  37  -4    1.98    1.72
  -1  37  -4   -1.18    2.09
  -1 -37   4    5.13    5.64
   1 -37  -4    1.00    2.86
  -1  37  -4    0.84    1.26
  -1  37  -4    0.58    1.84
  -1 -37   4    1.14    2.31
  -3 -37  -4    0.10    4.89
  -3  37   4    2.88    1.51
   3 -37   4    3.32    2.75
  -3 -37  -4   -0.78    1.98
   3 -37   4    6.42    2.36
   3  37  -4    0.29    1.41
  -3  37   4    2.08    2.10
   3 -37  -4   -0.15    1.37
   3  37   4   -2.16    1.37
  -3  37  -4   -3.65    2.15
  -3  37  -4   -0.40    1.61
  -3  37  -4   -2.60    1.72
  -3 -37   4    0.99    4.81
   3 -37  -4   -0.92    2.98
   3  37   4    0.36    2.51
  -3  37  -4    4.02    2.84
   0 -38  -4    2.66    3.01
   0  38  -4    8.10    3.14
   0  38  -4    2.40    2.20
   0  38   4    6.01    2.94
   0  38  -4    4.05    1.81
   0  38   4    3.92    1.33
   0 -38  -4    2.89    1.50
   0 -38   4    6.39    2.67
   0 -38  -4    6.57    1.93
   0  38  -4    4.11    2.01
   0  38  -4    4.99    1.38
  -2 -38  -4    0.35    3.92
   2  38  -4    1.32    1.40
   2 -38   4    3.83    2.75
   2 -38   4    4.55    2.29
  -2  38   4    2.61    2.26
  -2  38   4    2.78    1.28
  -2 -38  -4   -1.30    1.57
   2 -38  -4    1.25    1.45
   2  38   4    6.70    1.74
  -2  38  -4    1.41    1.41
   2 -38  -4    9.43    3.05
  -2 -38   4   13.16    6.39
  -2  38  -4    3.71    2.30
  -2  38  -4    3.83    2.18
  -2  38  -4    3.91    2.73
  -4 -38  -4    1.43    2.70
   4 -38   4   -3.38    2.40
   4  38  -4    0.94    1.77
  -4 -38  -4   -2.14    5.44
  -4  38   4    3.15    2.45
  -4  38  -4    4.09    1.99
   4  38   4   -0.43    1.89
  -4  38  -4   -0.54    2.15
   4  38   4    6.50    2.32
   4 -38  -4    6.08    3.99
  -4  38  -4    2.90    2.40
  -4 -38   4    3.39    5.44
   4 -38  -4    5.37    1.81
  -1  39   4   -0.09    2.54
   1 -39   4   -0.02    2.12
   1  39  -4   -4.05    2.24
  -1  39   4   -0.09    1.19
  -1 -39  -4    0.39    2.04
  -1 -39  -4    1.46    1.49
  -1 -39  -4    1.60    3.32
   1  39  -4    1.09    1.30
   1 -39   4    1.56    2.67
   1 -39  -4   -1.69    2.47
   1 -39  -4   -4.97    3.07
  -1 -39   4   -9.61    5.29
   1  39   4   -0.37    1.26
   1 -39  -4   -0.69    1.76
  -1  39  -4    0.56    2.38
  -1  39  -4   -0.96    1.91
  -1  39  -4   -1.01    2.47
   1 -39  -4    0.21    1.37
  -1  39  -4    1.17    1.37
  -1 -39   4    8.59    2.72
   1  39   4    0.12    3.28
  -3  39   4    0.83    1.51
   3 -39   4    0.81    2.32
  -3  39   4   -1.15    2.20
  -3 -39  -4   -4.47    4.98
   3  39  -4   -1.31    1.45
  -3 -39  -4   -1.55    1.96
  -3  39  -4   -3.18    2.46
   3  39   4   -1.26    1.88
  -3  39  -4    3.84    1.96
   3 -39  -4   -2.02    1.50
  -3  39  -4   -2.34    1.82
  -3 -39   4    4.94    5.86
   3 -39  -4   -1.71    3.31
   0 -40  -4    1.18    1.99
   0  40  -4   -2.35    2.32
   0 -40   4    4.22    2.77
   0  40  -4   -0.18    1.29
   0  40   4   -1.30    3.01
   0  40  -4    3.68    3.33
   0 -40  -4   -0.80    1.39
   0  40   4   -0.65    1.25
   0 -40  -4   -0.93    3.21
  -2 -40  -4   -1.03    4.21
   2 -40   4    0.61    2.47
   2  40  -4   -2.42    1.24
  -2  40   4    5.39    2.38
  -2 -40  -4    2.56    1.88
  -2  40   4   -0.86    1.33
  -2  40  -4   -2.23    2.10
   2 -40  -4   -0.01    3.13
  -2  40  -4    2.32    2.31
   2 -40  -4   -0.42    1.40
  -2  40  -4   -4.59    1.39
  -2 -40   4  -11.66    6.37
   2  40   4    0.16    1.51
  -1 -41  -4   10.93    2.66
  -1 -41  -4   12.40    3.90
  -1  41   4    7.22    1.67
  -1  41   4    4.69    3.11
   1 -41   4   13.04    3.45
   1  41  -4    8.15    1.71
   1  41  -4   11.22    2.94
  -1 -41  -4    7.66    1.93
   1 -41   4   12.17    3.49
  -1  41  -4    6.95    2.35
  -1 -41   4   -3.51    6.35
   1 -41  -4   14.04    3.87
   1  41   4   11.97    2.03
  -1  41  -4    8.51    3.16
   1 -41  -4    6.40    1.75
   1 -41  -4   12.73    2.50
  -1  41  -4    9.37    1.82
   1 -41  -4    7.47    3.07
  -3 -41  -4    3.28    5.69
  -3  41   4    6.69    2.88
  -3 -41  -4    5.67    2.39
   3  41  -4    8.23    2.00
  -3  41   4    8.08    1.99
   3 -41   4    5.84    2.61
  -3  41  -4    9.61    2.28
   3 -41  -4    6.93    1.95
  -3  41  -4    7.01    2.23
  -3  41  -4    8.68    2.93
   3  41   4    6.70    2.47
  -3 -41   4   -1.41    6.30
   3 -41  -4    3.42    3.69
   0  42   4    1.42    1.40
   0  42  -4    2.28    3.59
   0 -42  -4    1.68    1.63
   0 -42   4    1.58    3.21
   0  42  -4    0.84    1.42
   0 -42  -4    0.17    2.20
   0 -42  -4    0.49    3.48
   0  42   4    1.25    3.30
  -2 -42  -4   -1.04    4.50
  -2  42   4    1.00    1.47
   2  42  -4    0.96    1.56
   2 -42   4    1.76    2.64
  -2  42   4   -0.04    2.67
  -2 -42  -4    0.46    1.93
  -2  42  -4   -2.11    2.30
  -2 -42   4   -6.03    6.98
   2 -42  -4    1.02    1.63
   2 -42  -4    3.26    2.28
   2 -42  -4   -0.73    3.15
  -2  42  -4   -3.40    2.42
   2  42   4   -0.52    1.64
  -2  42  -4   -0.90    1.57
  -1  43   4    2.43    3.31
  -1 -43  -4    9.23    3.97
  -1 -43  -4    1.56    1.66
   1  43  -4    5.76    1.63
  -1 -43  -4    3.18    2.62
  -1  43   4    3.58    1.52
   1 -43  -4    1.21    2.24
   1 -43  -4    0.13    1.66
   1  43   4    4.88    1.68
  -1  43  -4    3.14    3.19
  -1  43  -4    2.38    1.66
   1 -43  -4    4.69    3.05
  -1  43  -4    2.71    2.69
   0  44  -4   11.58    4.29
   0 -44  -4    7.61    1.96
   0 -44  -4    9.25    2.60
   0  44   4   -1.02    4.10
   0  44   4   10.78    1.93
   0 -44  -4    3.77    4.38
   0  44  -4   12.79    2.05
   0 -44   4   11.25    3.99
  -1  45   4    9.51    1.96
   1  45  -4    7.05    1.90
  -1 -45  -4    3.90    1.90
  -1  45   4    7.33    4.05
   1 -45  -4    4.36    1.79
  -1  45  -4   11.30    2.15
   1  45   4    5.86    1.98
   1 -45  -4    4.20    3.49
  -1  45  -4   11.54    3.57
   0   0  -5   -1.29    0.66
   0   0  -5    0.34    0.72
   0   0   5    0.25    0.53
   0   0   5   -0.42    0.52
  -2   0  -5   -0.10    0.83
   2   0  -5    0.64    0.63
  -2   0  -5   -0.63    0.82
   2   0   5    0.55    0.70
   2   0   5    1.06    0.65
  -2   0   5   -0.48    0.60
   2   0  -5   -1.12    1.09
   2   0   5    0.20    0.68
  -2   0  -5   -1.22    1.39
  -2   0   5    0.30    0.67
   2   0  -5    4.26    1.44
  -2   0   5   -0.28    0.71
   2   0  -5   -0.41    0.90
   4   0   5    0.76    1.24
  -4   0   5    0.63    1.29
   4   0  -5   -3.82    2.09
   4   0   5   -0.12    1.36
  -4   0  -5    0.76    1.78
  -4   0   5    0.37    1.20
  -4   0  -5   -1.10    1.28
   4   0  -5    0.87    1.30
   4   0   5   -2.24    1.26
   4   0   5    0.27    1.12
  -4   0   5    1.97    1.25
  -4   0  -5   -0.34    2.50
  -4   0   5    0.47    1.38
   4   0  -5   -1.15    1.64
  -6   0  -5    0.54    2.70
   6   0   5   -0.39    1.57
   6   0   5   -0.05    1.90
  -6   0   5    2.27    2.16
   6   0  -5    0.93    2.03
  -6   0  -5   -0.83    1.74
  -6   0   5    1.12    2.52
   1   1  -5    9.30    1.48
  -1  -1  -5   11.35    1.64
  -1   1   5    7.65    1.23
   1  -1   5    8.63    1.30
   1   1  -5   10.39    1.49
  -1   1   5    9.63    1.39
   1  -1   5   10.02    1.31
   1  -1   5    9.53    1.06
  -1  -1  -5   10.91    1.53
  -1   1   5    8.89    1.22
  -1  -1   5    9.97    1.48
   1   1   5    9.51    1.10
  -1  -1   5   11.21    1.29
   1  -1  -5    8.00    1.53
  -1   1  -5    9.67    1.48
  -1  -1   5   10.02    1.33
   1   1   5    9.61    1.29
   1  -1  -5    9.92    1.50
   1   1   5    9.37    1.32
   1  -1  -5   11.44    1.64
  -1   1  -5   10.00    1.55
  -3   1   5    6.85    1.45
   3  -1   5    6.89    1.84
  -3   1   5    9.47    1.67
   3   1  -5    4.16    1.77
   3  -1   5    7.30    1.34
  -3  -1  -5    9.30    2.50
  -3  -1  -5    8.47    1.97
   3  -1   5    9.35    1.39
   3   1  -5    7.21    1.15
   3   1  -5    3.54    2.25
  -3  -1  -5   10.39    1.78
   3  -1   5    9.23    1.55
   3  -1   5    9.75    1.58
  -3   1   5    5.76    1.46
  -3   1   5    9.50    1.37
   3   1  -5    7.08    1.62
  -3   1  -5    9.39    1.79
   3  -1  -5    6.25    1.83
  -3  -1   5   11.92    1.78
   3   1   5    8.58    1.91
   3   1   5   11.16    1.67
   3  -1  -5    6.90    1.14
  -3  -1   5    8.00    1.63
   3   1   5    7.36    1.46
  -3  -1   5    4.70    1.28
  -3   1  -5    6.53    2.16
   3   1   5    6.26    1.29
  -3  -1   5    8.83    1.59
   3  -1  -5    5.81    1.91
  -3   1  -5    5.88    1.84
   3  -1  -5    6.63    1.54
   3   1   5    8.04    1.33
  -5  -1  -5    8.62    2.66
   5   1  -5    2.77    2.03
   5   1  -5    8.49    1.94
   5  -1   5    2.82    1.74
   5  -1   5    6.27    2.20
   5  -1   5    3.84    1.58
  -5   1   5    1.32    1.80
  -5  -1  -5    3.28    1.74
   5  -1   5    4.90    1.81
  -5   1   5    3.41    2.47
  -5   1   5    5.05    1.92
  -5   1  -5   -1.04    1.56
   5   1   5    5.23    2.09
  -5  -1   5    3.22    1.99
  -5  -1   5    5.61    1.88
   5  -1  -5    4.83    2.57
   5   1   5    3.80    1.56
   5   1   5    1.39    1.74
   5  -1  -5    5.73    2.23
  -5  -1   5    2.47    2.34
  -5   1  -5    8.40    2.72
   5   1   5    5.68    1.95
   0  -2  -5    1.07    0.75
   0  -2  -5    1.87    1.19
   0   2  -5    1.54    0.70
   0   2  -5    1.62    0.69
   0   2   5    0.99    0.58
   0  -2   5    1.08    0.64
   0   2   5    1.23    0.53
   0   2   5    1.43    0.68
   0  -2  -5    1.62    0.82
   0  -2   5    1.42    0.64
   0   2  -5    0.62    0.68
   2   2  -5   -0.10    0.90
  -2  -2  -5    0.75    0.94
   2  -2   5   -0.48    0.67
  -2   2   5    1.49    0.71
  -2  -2  -5    0.73    0.94
   2  -2   5    0.64    0.75
   2   2  -5    0.20    0.66
   2  -2   5    1.03    0.74
  -2   2   5   -0.73    0.69
   2   2  -5    1.54    1.21
  -2  -2  -5    1.26    1.61
  -2   2   5    1.16    0.78
   2   2   5    0.18    0.67
   2   2   5    0.43    0.78
   2   2   5    0.66    0.65
   2  -2  -5    0.90    1.01
   2   2   5    1.40    0.70
  -2  -2   5    0.85    0.74
  -2  -2   5    1.76    0.86
  -2  -2   5    0.58    0.73
   2  -2  -5   -0.74    1.18
  -2   2  -5    1.06    0.95
  -2   2  -5    2.05    0.98
  -4   2   5    2.30    1.28
  -4  -2  -5   -2.00    2.47
   4   2  -5    0.47    1.20
  -4  -2  -5   -0.16    1.37
  -4   2   5   -1.00    1.17
   4  -2   5    0.11    1.36
  -4   2   5    1.69    1.32
   4  -2   5    1.97    1.25
   4   2  -5    0.81    1.61
  -4   2   5   -1.38    1.43
  -4  -2  -5   -0.20    1.80
   4  -2   5    1.51    1.24
   4  -2   5   -0.18    1.34
  -4   2  -5   -0.43    1.43
   4  -2  -5    0.57    1.66
  -4   2  -5    0.20    1.70
   4   2   5   -2.43    1.15
  -4  -2   5    1.95    1.43
  -4  -2   5    2.25    1.27
  -4  -2   5   -0.40    1.18
   4   2   5    0.68    1.42
  -4  -2   5   -0.16    1.20
   4   2   5    0.84    1.25
   4   2   5    0.58    1.41
   4  -2  -5    4.53    2.19
   6   2  -5   -1.22    2.00
  -6   2   5    2.00    2.46
   6  -2   5    1.98    1.91
  -6  -2  -5    8.39    2.69
  -6   2   5   -1.25    2.03
   6  -2   5   -0.08    1.50
   6   2   5    0.81    1.88
  -6  -2   5    1.37    2.05
  -6   2  -5    0.05    1.67
  -6   2  -5    2.58    2.57
   6   2   5   -0.03    1.62
  -6  -2   5    1.90    2.52
   1  -3   5    3.88    0.90
   1  -3   5    5.00    0.94
  -1  -3  -5    5.49    1.19
  -1  -3  -5    6.48    1.42
  -1   3   5    5.43    0.99
   1   3  -5    6.73    1.07
  -1   3   5    4.20    1.04
   1  -3   5    4.42    0.75
  -1   3   5    5.68    0.98
  -1  -3  -5    6.08    1.65
   1   3  -5    4.98    1.07
   1   3   5    4.43    0.75
  -1  -3   5    4.09    0.97
  -1  -3   5    5.44    0.94
   1  -3  -5    5.17    1.17
   1   3   5    6.14    1.13
  -1  -3   5    6.36    1.06
  -1   3  -5    2.35    0.80
  -1   3  -5    4.12    0.73
  -1   3  -5    4.12    1.06
   1   3   5    3.46    0.85
   1  -3  -5    5.43    1.24
  -3   3   5    4.27    1.28
  -3  -3  -5    2.53    1.34
   3  -3   5    4.52    1.37
   3   3  -5    2.68    1.27
  -3   3   5    3.29    1.20
  -3  -3  -5    2.36    1.17
   3   3  -5    2.91    1.56
   3  -3   5    1.51    1.07
  -3  -3  -5    4.18    2.16
   3  -3   5    5.29    1.32
   3  -3   5    5.63    1.20
  -3   3   5    4.05    1.06
   3  -3   5    4.45    1.55
  -3   3   5    2.85    0.98
   3   3  -5    4.88    1.01
  -3   3  -5    2.14    1.32
  -3  -3   5    5.45    1.57
  -3   3  -5    4.05    1.30
   3  -3  -5    5.97    1.73
   3   3   5    3.36    1.07
   3   3   5    3.66    1.13
  -3  -3   5    3.29    1.07
   3   3   5    3.88    1.54
   3  -3  -5    2.97    1.07
   3  -3  -5    4.20    1.33
   3   3   5    4.00    1.10
  -3  -3   5    3.06    1.26
  -3  -3   5    4.39    1.07
   3   3   5    2.19    1.12
  -5  -3  -5    6.07    2.72
   5  -3   5    1.30    1.84
   5   3  -5    0.13    1.79
   5  -3   5    1.51    1.64
  -5   3   5   -2.15    2.23
   5  -3   5    1.31    1.44
   5  -3   5    2.88    1.79
   5   3  -5    2.34    2.04
  -5  -3  -5    4.55    1.75
  -5   3   5    1.98    1.65
  -5   3   5   -0.59    1.76
   5  -3  -5    2.22    2.67
   5   3   5    4.70    1.98
   5   3   5    0.75    1.64
  -5   3  -5    8.89    2.48
   5  -3  -5    2.76    2.03
  -5  -3   5    3.46    2.49
  -5  -3   5    0.30    1.81
  -5   3  -5    2.41    1.63
   5   3   5   -0.88    1.89
  -5  -3   5    2.73    1.84
   5   3   5    4.21    1.62
   0   4  -5    2.99    0.98
   0   4   5    2.30    0.58
   0  -4  -5    1.90    0.86
   0   4  -5    3.02    0.78
   0   4  -5    2.52    0.90
   0  -4   5    2.20    0.69
   0   4   5    2.26    0.73
   0   4   5    3.15    0.80
   0  -4  -5    4.00    1.19
   0  -4  -5    2.93    0.94
   0  -4   5    3.97    0.77
   2  -4   5    1.87    0.76
   2   4  -5    0.42    1.07
  -2   4   5    0.49    0.75
   2  -4   5    1.75    0.82
  -2  -4  -5    1.77    0.99
   2   4  -5    1.61    0.95
  -2  -4  -5    1.96    1.70
  -2  -4  -5    0.96    0.92
  -2   4   5    3.83    0.95
   2   4  -5    1.71    0.66
  -2   4   5    3.49    0.94
   2  -4   5    3.44    0.97
  -2   4  -5    1.38    0.89
  -2  -4   5    1.83    0.91
  -2  -4   5    2.41    0.88
   2  -4  -5    2.12    1.24
  -2  -4   5    1.03    0.73
   2   4   5    1.59    0.67
   2  -4  -5    2.33    0.92
   2   4   5    0.84    0.65
  -2   4  -5    1.52    1.05
  -2  -4   5    1.37    1.01
   2   4   5    1.90    0.80
   2   4   5    1.45    0.83
   4   4  -5    0.59    1.57
   4  -4   5    0.57    1.33
   4  -4   5    0.15    1.21
  -4   4   5    3.14    1.27
   4  -4   5    1.79    1.22
  -4   4   5    1.70    1.36
  -4   4   5   -2.22    1.39
   4  -4   5    1.47    1.49
  -4  -4  -5    0.66    2.61
  -4  -4  -5    1.93    1.63
   4   4  -5    2.14    1.24
  -4  -4  -5    3.71    1.89
  -4   4   5    2.00    1.30
  -4  -4  -5    1.39    2.16
  -4   4  -5    1.97    1.75
   4   4   5    1.00    1.34
  -4  -4   5    2.32    1.31
  -4  -4   5    2.21    1.37
  -4   4  -5    1.82    1.58
   4  -4  -5    4.43    2.15
   4   4   5    2.97    1.49
  -4  -4   5   -1.55    1.39
   4   4   5    1.54    1.31
  -4  -4   5    2.15    1.46
   4   4   5   -0.39    1.20
  -6   4   5    1.11    2.49
   6  -4   5   -1.53    1.46
  -6   4   5   -0.45    2.08
  -6  -4  -5    1.12    2.77
   6  -4   5    1.71    1.86
   6   4  -5   -0.18    2.08
  -6   4  -5   -0.54    1.65
   6   4   5   -0.78    1.58
  -6  -4   5    0.40    1.98
  -6   4  -5    4.29    2.61
  -6  -4   5    1.27    2.55
   6  -4  -5   -1.80    2.50
   6   4   5    1.26    1.96
  -1   5   5  117.13    7.41
   1  -5   5  117.18    7.26
   1  -5   5  120.22    7.35
  -1  -5  -5  115.33    7.46
  -1   5   5  123.38    7.60
   1   5  -5  124.19    7.50
  -1  -5  -5  117.22    8.28
  -1  -5  -5  111.82    7.38
  -1   5   5  121.58    7.34
   1   5  -5  117.72    7.59
   1  -5   5  118.07    6.95
  -1   5  -5  113.08    7.59
   1  -5  -5  116.48    7.44
  -1  -5   5  116.93    7.24
   1   5   5  118.23    7.04
   1  -5  -5  121.92    7.41
  -1   5  -5  121.25    7.68
   1   5   5  122.42    7.47
  -1  -5   5  120.53    7.61
   1   5   5  119.57    7.37
  -1   5  -5  113.65    7.04
  -1  -5   5  120.89    7.34
  -3   5   5   87.20    5.68
  -3   5   5   80.68    5.41
   3   5  -5   78.44    6.09
   3  -5   5   85.47    5.52
  -3   5   5   82.57    5.78
   3  -5   5   87.39    5.77
  -3  -5  -5   78.54    6.90
  -3  -5  -5   77.61    6.07
  -3  -5  -5   81.50    5.89
   3  -5   5   78.55    5.96
   3  -5   5   82.70    5.50
   3   5  -5   85.66    5.86
   3   5  -5   85.93    5.20
   3  -5   5   81.14    5.39
   3  -5  -5   76.28    5.79
  -3  -5   5   79.80    5.73
  -3   5  -5   76.93    5.87
   3   5   5   78.19    5.52
  -3  -5   5   73.44    5.23
  -3   5  -5   71.47    6.08
   3   5   5   76.15    5.85
  -3  -5   5   77.38    5.95
  -3   5  -5   74.38    6.11
   3   5   5   84.97    5.73
  -3  -5   5   84.81    5.87
   3   5   5   83.91    5.42
   3   5   5   85.91    5.34
   5  -5   5   38.45    3.69
   5   5  -5   40.77    4.21
  -5   5   5   36.64    4.15
  -5   5   5   29.56    4.15
   5   5  -5   41.74    3.81
   5  -5   5   33.13    4.62
  -5  -5  -5   38.64    5.15
  -5  -5  -5   43.74    5.31
  -5  -5  -5   33.92    5.55
  -5  -5  -5   37.88    3.80
  -5   5   5   35.80    3.77
   5  -5   5   27.42    3.42
   5  -5   5   40.17    3.52
  -5  -5   5   42.44    4.18
   5   5   5   36.68    3.68
   5   5   5   41.38    4.49
   5   5   5   37.35    3.60
  -5   5  -5   32.10    3.80
  -5   5  -5   40.01    5.23
   5   5   5   42.38    4.13
   5  -5  -5   39.09    4.27
  -5  -5   5   37.60    4.04
  -5  -5   5   27.64    4.40
   5  -5  -5   33.07    4.20
   0   6  -5    3.60    1.09
   0   6   5    4.52    0.91
   0   6  -5    4.33    0.95
   0  -6  -5    4.02    1.41
   0  -6  -5    6.44    1.07
   0  -6   5    6.35    0.99
   0  -6   5    4.32    0.93
   0   6   5    3.31    0.92
   0   6   5    4.26    0.68
   0  -6  -5    5.24    1.18
   0   6  -5    3.89    0.88
   0   6   5    4.71    0.89
  -2  -6  -5    0.45    1.88
  -2   6   5    4.05    0.98
   2   6  -5    4.32    0.80
  -2   6   5    2.78    0.87
  -2  -6  -5    2.63    1.34
   2   6  -5    4.77    1.33
  -2  -6  -5    5.28    1.25
  -2   6   5    1.61    0.94
   2   6  -5    4.51    1.29
   2  -6   5    3.48    0.93
   2  -6   5    2.37    0.81
   2  -6   5    3.11    0.89
  -2  -6   5    3.26    0.82
  -2  -6   5    3.52    1.16
  -2  -6   5    3.85    0.98
  -2  -6   5    4.02    1.01
  -2   6  -5    3.96    1.15
  -2   6  -5    3.70    1.20
  -2   6  -5    4.28    1.24
   2   6   5    3.29    1.00
   2  -6  -5    5.21    1.28
   2   6   5    3.22    0.78
   2  -6  -5    6.16    1.29
   2   6   5    2.73    0.90
   2   6   5    2.33    0.76
  -4   6   5    1.57    1.38
  -4   6   5   -0.62    1.49
   4  -6   5    1.86    1.55
  -4  -6  -5    2.31    2.91
  -4  -6  -5    3.05    1.81
   4   6  -5    3.03    1.30
   4   6  -5    3.64    1.80
   4  -6   5    6.67    1.45
  -4  -6  -5    2.46    1.68
   4  -6   5    4.10    1.56
  -4   6   5    3.83    1.40
  -4  -6  -5    7.93    2.71
   4  -6   5    4.10    1.47
  -4  -6   5    0.38    1.57
  -4  -6   5    4.61    1.39
   4   6   5    2.01    1.36
  -4   6  -5    1.10    1.60
   4   6   5    3.64    1.61
   4   6   5    2.21    1.31
   4   6   5    4.02    1.49
  -4  -6   5    1.85    1.41
   4  -6  -5    3.62    2.06
  -4   6  -5    2.18    1.58
  -4  -6   5    3.69    1.72
  -6  -6  -5    3.45    2.91
   6   6  -5    3.43    2.13
  -6   6   5   -0.83    2.44
   6  -6   5    2.63    1.52
  -6   6   5   -2.78    1.87
   6  -6   5    4.32    1.87
   6   6   5    1.12    2.16
  -6   6  -5    1.11    1.70
  -6  -6   5   -0.78    2.52
   6  -6  -5    2.57    2.55
  -6  -6   5    0.98    1.92
  -6   6  -5   -0.67    2.75
   6   6   5    1.33    1.67
   1   7  -5    9.11    1.09
  -1  -7  -5   10.17    1.57
   1  -7   5   10.01    1.11
  -1   7   5   11.41    1.53
  -1   7   5   11.13    1.51
   1   7  -5   11.04    1.53
   1  -7   5   11.24    1.42
   1   7  -5   11.93    1.76
   1  -7   5   10.37    1.24
  -1   7   5   10.55    1.35
  -1  -7  -5   13.74    1.58
  -1  -7  -5   11.19    2.12
  -1  -7   5   11.08    1.41
  -1   7  -5    8.24    1.46
  -1  -7   5    9.95    1.51
  -1   7  -5    6.36    3.81
  -1   7  -5    7.19    3.64
   1   7   5    8.17    1.26
   1   7   5   10.60    1.44
  -1  -7   5   11.35    1.34
  -1   7  -5    9.96    1.61
  -1   7  -5   10.37    1.58
  -1   7  -5    9.81    1.20
   1  -7  -5   12.63    1.74
   1  -7  -5   11.34    1.59
   1   7   5   11.99    1.20
   3   7  -5    6.72    1.60
   3  -7   5    7.52    1.86
  -3   7   5    5.58    1.33
   3  -7   5    7.33    1.42
  -3   7   5    5.05    1.25
  -3  -7  -5    6.76    1.54
  -3   7   5    7.14    1.54
   3   7  -5    7.22    1.80
  -3  -7  -5    7.31    2.66
   3  -7   5    4.92    1.37
   3  -7   5    7.52    1.55
  -3  -7  -5    8.81    2.81
  -3   7   5    6.98    1.24
   3  -7   5    6.18    1.39
   3   7  -5    6.39    1.15
  -3  -7   5    4.63    1.19
   3   7   5    8.41    1.34
   3   7   5    7.48    1.42
   3   7   5    5.64    1.17
  -3   7  -5    4.74    1.48
   3   7   5    4.99    1.33
  -3  -7   5    8.12    1.61
   3  -7  -5    5.24    1.61
   3   7   5    9.66    2.00
  -3   7  -5    5.64    1.55
  -3  -7   5    6.62    1.32
  -3  -7   5    9.13    1.78
  -3   7  -5    7.99    1.57
  -5  -7  -5    1.20    2.62
  -5  -7  -5    4.95    3.21
  -5   7   5    4.38    2.80
  -5   7   5    4.03    1.94
   5  -7   5    4.30    1.71
   5   7  -5    0.30    1.84
  -5   7   5    5.15    1.87
   5  -7   5    2.95    1.56
  -5  -7  -5    4.87    3.64
   5   7  -5    3.77    1.72
   5  -7   5    2.81    2.19
   5  -7   5   -0.09    1.39
   5   7   5    6.04    1.91
  -5   7  -5    1.01    1.62
   5   7   5    0.62    1.58
  -5  -7   5    1.79    2.42
  -5  -7   5    1.82    1.82
  -5   7  -5   -1.98    1.84
   5   7   5    3.79    2.30
   5  -7  -5    0.97    2.44
   5   7   5    2.58    1.71
  -5  -7   5    0.34    1.86
   0  -8  -5   45.29    4.05
   0   8   5   45.68    3.44
   0  -8  -5   47.11    3.41
   0   8  -5   50.76    3.35
   0   8   5   44.89    3.54
   0  -8   5   47.95    3.26
   0  -8   5   45.09    3.28
   0   8  -5   48.06    3.63
   0   8  -5   51.02    3.63
   0   8   5   48.37    3.38
   0   8   5   46.07    3.03
   0  -8  -5   49.10    3.58
   2  -8   5   39.97    2.91
   2   8  -5   40.22    2.71
  -2  -8  -5   36.76    3.18
   2  -8   5   37.39    3.10
  -2   8   5   37.79    3.12
  -2  -8  -5   36.47    3.35
  -2  -8  -5   40.22    4.31
  -2   8   5   40.81    3.04
   2  -8   5   38.53    2.93
   2   8  -5   37.15    3.26
   2   8  -5   38.32    3.35
  -2   8   5   41.96    3.26
  -2  -8   5   38.61    2.88
  -2  -8   5   44.99    3.37
   2  -8  -5   38.27    3.26
   2   8   5   37.50    2.74
  -2  -8   5   37.75    3.11
  -2  -8   5   38.68    3.45
  -2   8  -5   44.72    3.61
   2   8   5   43.59    2.90
   2   8   5   37.58    3.14
   2  -8  -5   35.52    3.13
  -2   8  -5   46.96    3.53
   2   8   5   39.54    3.03
  -2   8  -5   39.10    3.77
  -4  -8  -5   20.83    3.96
  -4  -8  -5   21.19    3.39
  -4   8   5   17.78    2.51
   4  -8   5   21.76    2.43
   4  -8   5   24.17    2.82
   4  -8   5   20.15    2.59
   4  -8   5   22.24    3.16
  -4  -8  -5   15.45    3.99
   4   8  -5   25.51    2.48
  -4   8   5   21.47    2.82
   4   8  -5   24.13    3.11
  -4   8   5   19.24    2.71
  -4  -8   5   25.17    3.10
  -4  -8   5   16.87    2.32
   4  -8  -5   22.54    2.95
   4   8   5   17.67    2.36
  -4   8  -5   28.62    3.04
   4   8   5   27.81    3.16
  -4  -8   5   22.70    3.13
  -4   8  -5   22.45    3.11
  -4  -8   5   23.01    3.30
  -4   8  -5   17.49    2.86
   4   8   5   28.49    2.81
   4   8   5   22.62    2.75
  -6   8   5    7.98    2.41
  -6   8   5    6.41    2.97
   6   8  -5    7.41    2.32
  -6  -8  -5   11.70    3.26
   6  -8   5   10.52    2.07
   6  -8   5   10.42    2.03
   6  -8  -5   12.69    2.94
  -6   8  -5    6.81    2.83
  -6  -8   5    8.90    3.72
  -6  -8   5   10.59    3.15
   6   8   5   12.11    2.78
  -6   8  -5   10.38    2.23
  -6  -8   5    5.12    2.29
   6   8   5   12.55    2.37
   1  -9   5    1.02    0.70
   1   9  -5    1.79    0.62
   1   9  -5    1.54    0.82
   1  -9   5    2.02    3.55
  -1  -9  -5    1.58    0.94
   1  -9   5    1.64    0.80
  -1   9   5    0.50    0.63
   1   9  -5    1.48    0.98
  -1   9   5    2.35    0.80
  -1  -9  -5   -0.38    0.95
  -1  -9  -5    0.32    1.36
  -1   9   5    0.89    0.73
  -1   9  -5    1.03    0.76
  -1  -9   5    0.05    0.67
  -1   9  -5   -2.15    3.24
  -1  -9   5    0.25    0.75
  -1   9  -5    0.92    0.58
   1  -9  -5    1.94    0.94
  -1   9  -5    1.15    1.05
  -1   9  -5    2.16    0.91
   1   9   5    2.12    0.73
   1   9   5    2.31    0.84
  -1   9  -5    3.40    3.49
  -1  -9   5    1.06    0.82
   1   9   5    2.04    0.68
   1  -9  -5    2.15    1.01
  -3   9   5    2.00    1.08
   3   9  -5    2.30    0.85
  -3  -9  -5    1.36    1.86
   3  -9   5    0.87    1.27
  -3   9   5   -0.18    0.85
   3  -9   5    1.34    0.94
  -3  -9  -5   -1.30    1.20
   3  -9   5    1.47    1.17
   3   9  -5    0.19    1.38
   3  -9   5    0.81    1.18
   3  -9   5    1.39    1.28
   3   9  -5    2.30    1.28
  -3  -9  -5   -0.49    2.35
  -3   9   5    1.46    1.03
  -3  -9  -5   -0.90    1.62
  -3   9   5   -0.91    0.93
   3   9   5    1.65    1.01
   3   9   5    1.84    0.95
  -3  -9   5   -0.82    1.12
  -3  -9   5    2.21    1.32
  -3   9  -5    0.38    1.21
  -3  -9   5    1.07    0.99
   3   9   5    0.39    1.28
   3   9   5    1.08    0.92
  -3   9  -5    0.03    1.00
  -3   9  -5   -0.20    1.22
   3  -9  -5    2.15    1.28
   3   9   5    1.33    1.02
  -3  -9   5    0.77    0.99
   5  -9   5   -0.91    1.37
   5   9  -5    1.55    1.90
  -5   9   5    1.28    1.93
   5  -9   5    1.16    2.16
  -5  -9  -5    3.23    3.32
   5  -9   5   -0.26    1.65
  -5   9   5   -1.98    1.54
  -5  -9  -5   -0.35    2.58
  -5  -9  -5   -3.77    3.54
  -5   9   5    0.01    2.93
   5   9  -5    0.31    1.57
   5  -9   5    0.45    1.53
  -5   9  -5    2.44    1.60
  -5   9  -5    2.74    2.09
  -5  -9   5    1.29    2.38
  -5  -9   5   -0.46    1.86
   5  -9  -5    1.54    2.42
   5   9   5    3.15    1.75
   5   9   5   -1.54    1.75
   5   9   5    0.65    1.54
   5   9   5    0.96    2.00
  -5  -9   5    0.46    1.79
   0  10   5    0.03    0.63
   0  10  -5    1.43    0.70
   0  10  -5    1.21    0.91
   0  10   5    0.62    0.56
   0 -10  -5    0.77    0.99
   0  10   5    1.20    0.68
   0  10   5    1.46    0.67
   0  10  -5   -0.28    0.58
   0  10  -5   -0.40    0.78
   0 -10  -5    1.04    1.06
   0 -10   5    2.20    0.84
   0 -10   5   -0.10    0.64
   0 -10   5   -0.22    0.63
   0  10  -5    0.41    0.69
   0 -10  -5   -0.31    0.79
   2 -10   5    1.03    0.99
   2  10  -5   -0.17    0.96
  -2 -10  -5    0.34    1.23
   2 -10   5    1.39    0.78
  -2 -10  -5    1.74    1.00
  -2  10   5    0.02    0.77
   2  10  -5    1.36    1.02
   2 -10   5   -0.98    0.84
  -2  10   5    0.54    0.86
  -2  10   5    0.45    0.86
   2  10  -5   -0.26    0.64
  -2 -10  -5    1.58    2.07
  -2 -10   5    2.35    1.08
  -2 -10   5   -0.61    1.01
  -2  10  -5    1.21    0.88
   2 -10  -5   -0.73    1.09
   2 -10  -5    0.40    1.07
  -2 -10   5    1.63    0.97
   2  10   5    1.15    0.78
  -2 -10   5    1.56    0.83
  -2  10  -5    0.73    1.00
   2  10   5    0.26    0.81
   2  10   5    1.11    1.12
   2  10   5   -0.07    0.69
  -2  10  -5    1.08    1.37
   2  10   5   -0.59    0.64
   4  10  -5    0.52    1.17
  -4  10   5   -0.52    1.30
  -4 -10  -5    1.16    2.70
  -4 -10  -5   -1.05    3.04
  -4  10   5   -1.97    1.54
   4 -10   5   -0.53    1.22
   4 -10   5   -0.06    1.49
  -4 -10  -5   -1.43    1.87
   4 -10   5    0.09    1.34
   4 -10   5    1.48    1.47
   4  10  -5   -0.71    1.63
  -4  10   5    1.41    1.26
  -4  10  -5    2.54    1.61
  -4 -10   5    0.35    1.75
  -4  10  -5   -0.50    1.21
   4 -10  -5   -0.53    1.67
   4  10   5    1.76    1.27
   4  10   5   -0.53    1.31
   4  10   5    2.32    1.24
   4  10   5   -0.14    1.50
  -4 -10   5    1.22    1.70
  -4  10  -5    0.04    1.49
  -4 -10   5    0.70    1.46
  -4 -10   5    2.68    1.53
   6  10  -5    2.05    2.07
  -6 -10  -5   -2.48    2.97
  -6  10   5   -1.98    2.14
   6 -10   5   -2.19    1.49
   6 -10   5    0.38    1.75
  -6  10   5   -0.55    2.50
  -6 -10   5    1.35    1.95
  -6 -10   5    0.75    2.62
  -6 -10   5   -2.05    3.40
   6  10   5   -1.52    1.69
  -6  10  -5   -0.58    2.39
  -6  10  -5    0.67    1.70
   6  10   5    1.23    2.04
   6 -10  -5   -0.01    2.45
   1  11  -5    1.22    0.85
   1 -11   5   -0.06    0.67
  -1  11   5    0.51    0.70
   1  11  -5    0.66    0.61
  -1  11   5   -0.30    0.67
  -1 -11  -5    2.32    1.41
   1  11  -5    1.40    0.89
  -1  11   5    0.57    0.74
   1 -11   5    0.28    0.79
  -1 -11  -5    2.05    1.05
   1  11  -5    0.20    0.78
  -1 -11  -5   -1.08    0.91
   1  11   5    0.18    0.62
   1 -11  -5   -0.33    1.00
   1  11   5    0.50    0.67
  -1  11  -5   -0.07    0.62
  -1  11  -5    1.07    1.07
  -1 -11   5    1.65    0.84
  -1 -11   5    2.09    0.84
  -1  11  -5    0.43    0.69
   1  11   5    0.42    0.60
  -1  11  -5    1.10    0.74
   1  11   5    2.08    0.84
  -1 -11   5   -0.46    0.64
   1 -11  -5    0.94    0.97
  -3  11   5   -0.89    0.86
   3 -11   5   -1.62    1.30
   3 -11   5    2.03    1.33
   3  11  -5   -0.87    0.78
   3  11  -5   -1.42    1.18
  -3  11   5   -0.42    0.98
   3 -11   5    1.57    1.04
   3  11  -5    3.99    1.39
  -3  11   5    1.06    1.07
  -3 -11  -5    1.88    1.63
  -3 -11  -5   -2.95    1.78
   3 -11   5   -1.45    1.15
  -3 -11  -5    0.53    1.33
   3 -11   5    1.27    1.30
  -3 -11  -5    3.78    2.68
  -3  11   5    0.26    0.96
  -3  11  -5    0.56    1.31
   3 -11  -5   -0.25    1.26
   3  11   5   -0.66    1.01
  -3 -11   5   -0.84    1.27
  -3  11  -5    0.05    1.13
   3  11   5    0.99    0.91
  -3 -11   5   -0.01    1.00
  -3  11  -5    0.51    1.31
  -3 -11   5   -1.68    1.11
  -3 -11   5    1.13    1.10
   3  11   5   -0.40    0.82
   3  11   5    0.84    0.99
   3  11   5   -0.15    1.20
  -5 -11  -5   -2.20    3.35
   5 -11   5   -0.79    1.95
  -5  11   5   -1.63    1.56
  -5 -11  -5    1.58    2.72
  -5 -11  -5   -0.73    3.46
   5 -11   5    1.35    1.76
   5  11  -5   -0.59    1.61
  -5  11   5   -0.41    1.89
   5  11  -5   -1.84    1.84
   5 -11   5    1.83    1.57
   5 -11   5   -0.25    1.39
  -5 -11   5   -2.24    2.50
   5  11   5   -0.01    2.08
   5  11   5   -0.90    1.46
  -5  11  -5    1.16    1.36
   5  11   5    1.01    1.82
   5  11   5   -1.04    1.81
  -5  11  -5    1.61    1.56
  -5  11  -5   -1.90    2.08
  -5 -11   5    3.61    1.93
  -5 -11   5    2.40    1.90
   5 -11  -5   -0.83    2.20
   0  12  -5    3.77    0.92
   0 -12   5    5.54    0.93
   0  12  -5    3.75    0.78
   0  12   5    6.10    1.15
   0  12  -5    7.08    1.23
   0  12  -5    4.52    0.98
   0 -12   5    3.94    0.94
   0 -12  -5    4.48    1.10
   0 -12  -5    4.66    1.58
   0 -12   5    5.33    1.20
   0  12  -5    3.92    1.12
   0  12   5    3.41    0.90
   0  12   5    4.67    0.78
   0  12   5    4.80    0.99
   0 -12  -5    4.99    1.25
   2 -12   5    5.59    1.19
   2 -12   5    3.68    1.12
  -2 -12  -5    5.06    1.24
  -2  12   5    3.04    1.00
  -2 -12  -5    0.17    1.25
   2  12  -5    5.67    1.40
  -2 -12  -5    1.47    2.05
   2  12  -5    4.28    0.86
   2  12  -5    4.53    1.35
  -2  12   5    2.75    1.03
   2 -12   5    3.65    0.94
  -2  12   5    3.38    1.02
  -2 -12   5    3.47    0.89
   2  12   5    3.63    0.86
   2  12   5    3.75    1.05
  -2  12  -5    4.33    1.34
   2  12   5    3.84    1.00
   2 -12  -5    3.74    1.70
  -2 -12   5    5.04    1.51
   2  12   5    3.44    0.86
   2 -12  -5    2.68    1.20
  -2 -12   5    6.47    1.38
  -2  12  -5    2.81    1.53
  -2 -12   5    3.57    1.11
  -2  12  -5    3.84    1.25
   2  12   5    4.10    1.33
  -4  12   5    3.20    1.54
   4 -12   5    1.60    1.32
  -4 -12  -5   -1.28    2.95
   4 -12   5    2.96    1.47
  -4 -12  -5    6.26    2.61
   4  12  -5   -1.63    1.12
   4 -12   5    2.01    1.77
   4  12  -5    3.28    1.78
  -4  12   5   -0.69    1.77
   4 -12   5    2.52    1.62
  -4 -12  -5   -0.08    3.15
  -4 -12  -5    2.48    2.23
  -4  12   5    2.58    1.33
   4  12   5    2.61    1.35
   4  12   5   -0.35    1.13
  -4 -12   5   -0.21    1.80
  -4 -12   5   -0.31    1.36
  -4  12  -5    0.01    1.61
  -4  12  -5    3.46    1.42
   4  12   5    0.83    1.31
   4 -12  -5    0.74    1.60
  -4 -12   5    1.69    1.79
   4  12   5    3.03    1.88
  -4  12  -5    0.99    1.58
  -6 -12  -5   -1.44    3.04
   6 -12   5   -0.51    1.79
   6  12  -5   -1.84    1.93
  -6  12   5   -0.50    2.54
   6 -12   5    3.06    1.62
  -6  12   5   -0.15    2.26
  -6  12   5   -1.79    2.49
  -6 -12   5    0.64    3.61
  -6  12  -5    1.78    1.61
  -6  12  -5   -2.15    2.31
   6  12   5   -2.95    2.14
  -6 -12   5   -2.66    2.50
   6 -12  -5    5.89    2.78
  -6 -12   5   -1.48    1.95
   6  12   5    0.73    1.78
  -1  13   5    1.53    0.82
  -1 -13  -5    1.87    1.08
   1  13  -5    0.04    0.74
   1 -13   5    3.71    0.79
  -1  13   5    1.42    0.83
   1  13  -5    1.91    0.64
   1  13  -5    1.25    0.94
  -1  13   5    2.82    0.92
   1  13  -5    2.22    0.97
  -1 -13  -5    2.33    1.08
  -1 -13  -5    0.92    1.59
   1 -13   5    1.10    0.82
   1  13   5    0.94    0.67
  -1  13  -5    2.71    1.11
   1  13   5    1.80    0.93
  -1 -13   5    3.16    1.00
  -1 -13   5    1.64    1.18
   1 -13  -5    0.54    1.11
  -1  13  -5    1.03    0.84
   1  13   5    2.12    0.80
  -1  13  -5    1.86    0.81
  -1 -13   5    2.53    0.78
   1  13   5    1.27    0.69
  -1  13  -5    2.14    0.99
  -1 -13   5    2.93    0.88
  -1  13  -5    1.83    0.90
   1 -13  -5    1.18    1.04
   3  13  -5    2.31    1.54
  -3 -13  -5    1.57    1.44
  -3 -13  -5    2.09    2.12
  -3 -13  -5   -1.12    2.46
   3 -13   5   -0.97    1.16
   3 -13   5    1.38    1.05
  -3  13   5    2.80    1.16
   3 -13   5    1.58    1.55
  -3  13   5    0.59    0.94
   3  13  -5   -0.02    0.91
   3  13  -5    1.16    1.25
  -3 -13  -5    1.49    1.63
   3 -13   5    0.80    1.31
  -3  13   5    1.98    1.10
   3 -13   5    1.86    1.39
  -3  13   5    1.34    1.15
  -3  13  -5    0.88    1.24
  -3  13  -5    1.76    1.29
   3  13   5    2.52    1.00
  -3 -13   5   -0.79    1.49
   3  13   5    1.34    1.18
  -3 -13   5    1.56    1.12
   3  13   5    0.35    0.90
   3 -13  -5    2.67    1.28
  -3 -13   5    2.88    1.14
  -3 -13   5    1.11    1.43
  -3  13  -5    0.04    1.36
   3  13   5    2.26    1.52
   3  13   5    1.20    1.08
   5 -13   5    2.68    1.80
  -5 -13  -5    3.26    2.85
  -5  13   5    0.86    1.67
   5 -13   5    1.97    1.39
   5  13  -5    0.58    1.60
  -5  13   5    0.51    2.07
   5 -13   5    3.95    2.20
  -5 -13  -5    3.35    3.64
   5  13  -5   -0.12    2.02
  -5 -13  -5    0.67    3.58
   5 -13   5    1.03    1.54
  -5 -13   5    0.84    1.76
   5  13   5    1.49    1.66
  -5 -13   5   -0.50    2.62
  -5  13  -5    3.65    2.21
   5  13   5    0.40    1.86
   5  13   5    0.09    1.83
  -5  13  -5    1.20    1.47
  -5 -13   5    0.24    2.02
  -5  13  -5    2.28    1.48
   5 -13  -5   -2.72    2.04
   0 -14   5   43.57    3.26
   0  14  -5   47.90    3.38
   0  14  -5   52.65    3.69
   0  14   5   47.29    3.42
   0  14  -5   51.48    3.60
   0 -14   5   43.95    3.17
   0 -14  -5   42.16    3.30
   0 -14  -5   49.74    4.41
   0 -14  -5   44.67    3.62
   0  14   5   45.93    3.13
   0  14   5   48.46    3.53
   0  14  -5   45.05    3.11
   0  14  -5   50.26    3.79
   0 -14   5   49.86    3.68
   0  14   5   45.59    3.53
  -2 -14  -5   40.29    3.24
   2 -14   5   34.73    3.22
   2  14  -5   43.70    3.42
   2  14  -5   38.69    2.85
   2 -14   5   42.07    3.19
  -2  14   5   42.78    3.16
  -2  14   5   41.31    3.30
  -2  14   5   44.13    3.30
  -2 -14  -5   43.93    4.77
   2 -14   5   36.59    2.75
   2  14  -5   42.28    3.50
  -2 -14  -5   37.45    3.42
   2  14   5   40.17    3.13
  -2  14  -5   45.69    3.73
   2  14   5   39.99    2.97
   2 -14  -5   39.30    3.37
  -2 -14   5   40.76    3.46
  -2 -14   5   38.61    3.75
  -2  14  -5   42.97    3.55
   2  14   5   35.32    3.40
   2  14   5   37.95    3.29
  -2  14  -5   31.07    3.75
   2  14   5   37.32    2.90
  -2 -14   5   40.94    3.34
  -2 -14   5   42.25    2.97
   4 -14   5   26.76    2.96
   4 -14   5   19.94    2.37
  -4 -14  -5   23.45    3.62
   4  14  -5   18.01    2.94
   4 -14   5   25.18    2.82
  -4  14   5   26.13    2.78
  -4  14   5   24.11    3.28
  -4 -14  -5   20.66    4.28
   4  14  -5   27.75    2.66
   4 -14   5   21.54    3.49
  -4  14   5   17.06    2.85
  -4 -14  -5   22.55    3.69
  -4 -14  -5   23.58    4.87
   4  14   5   25.44    3.06
  -4 -14   5   22.30    2.92
   4  14   5   26.45    2.81
  -4 -14   5   24.01    3.11
   4  14   5   27.86    2.69
   4  14   5   21.40    3.45
  -4 -14   5   18.07    3.40
   4 -14  -5   17.40    2.84
  -4  14  -5   31.46    3.14
  -4  14  -5   19.46    3.16
  -4  14  -5   20.87    3.22
  -6  14   5    9.25    2.93
   6 -14   5    8.70    2.02
   6 -14   5    7.96    2.03
  -6  14   5   10.42    2.76
  -6  14   5    4.00    3.11
   6  14  -5   12.88    2.61
  -6 -14  -5    5.77    3.45
  -6  14  -5    3.33    1.73
   6  14   5   11.40    2.39
  -6 -14   5    4.57    3.33
  -6  14  -5   12.14    3.08
   6 -14  -5    8.61    2.96
  -6 -14   5    9.58    2.52
  -6 -14   5    9.17    3.75
   6  14   5   14.57    2.98
  -1  15   5   28.87    2.49
   1 -15   5   25.96    2.06
  -1 -15  -5   33.69    3.87
   1  15  -5   26.00    2.17
   1 -15   5   28.26    2.51
  -1 -15  -5   28.09    2.53
   1  15  -5   26.93    2.42
  -1  15   5   27.69    2.55
  -1  15   5   27.86    2.54
   1  15  -5   30.85    2.83
   1  15  -5   24.74    2.43
   1  15  -5   30.12    2.56
  -1 -15  -5   25.25    2.68
   1  15   5   30.21    2.26
  -1 -15   5   29.56    2.28
   1 -15  -5   27.85    3.13
  -1  15  -5   28.60    2.33
  -1 -15   5   33.52    2.77
  -1 -15   5   32.99    2.62
   1  15   5   33.37    2.66
   1  15   5   31.45    2.44
  -1  15  -5   25.00    2.17
  -1  15  -5   28.61    2.70
  -1  15  -5   30.57    3.07
  -1  15  -5   28.03    2.74
   1  15   5   30.94    2.23
  -1 -15   5   31.33    3.11
   1 -15  -5   28.95    2.67
   3  15  -5   22.52    2.04
   3  15  -5   19.36    2.56
  -3  15   5   19.78    2.59
   3 -15   5   18.18    2.40
   3 -15   5   23.47    3.18
   3  15  -5   24.20    2.87
   3 -15   5   19.45    1.96
  -3 -15  -5   19.22    2.75
  -3 -15  -5   17.90    4.21
  -3  15   5   14.16    2.08
   3 -15   5   18.66    2.48
  -3  15   5   24.65    3.49
  -3 -15  -5   17.25    3.65
  -3 -15  -5   22.27    2.63
  -3  15   5   19.00    2.41
  -3  15  -5   17.92    2.62
   3  15   5   19.70    2.38
  -3 -15   5   16.28    2.38
  -3 -15   5   22.62    2.82
  -3 -15   5   26.96    3.56
   3 -15  -5   23.05    2.62
  -3  15  -5   22.35    2.84
   3  15   5   22.50    2.11
  -3  15  -5   14.31    2.71
   3  15   5   20.34    2.15
   3  15   5   17.77    2.23
   3  15   5   14.85    2.64
  -5 -15  -5   15.00    4.45
   5  15  -5    8.98    2.03
  -5  15   5    4.43    2.45
   5 -15   5   10.93    2.85
  -5 -15  -5    9.35    4.18
   5  15  -5   11.16    2.74
  -5 -15  -5   12.13    3.39
   5 -15   5   11.21    1.99
   5 -15   5   11.58    1.92
  -5  15   5    8.92    2.11
   5 -15   5   10.36    2.16
  -5 -15   5    7.04    2.52
  -5  15  -5   10.76    2.79
  -5 -15   5    6.01    3.18
   5  15   5    8.39    2.29
  -5  15  -5    8.07    2.11
   5  15   5    9.24    2.21
  -5  15  -5   10.68    2.06
   5 -15  -5    2.39    2.22
  -5 -15   5    5.85    2.21
   5  15   5    7.85    2.14
   0  16   5    4.32    1.08
   0  16   5    3.78    0.87
   0 -16  -5    5.54    1.68
   0  16   5    3.47    1.10
   0 -16  -5    4.69    1.23
   0  16  -5    3.07    1.14
   0  16  -5    4.27    1.00
   0  16  -5    4.12    1.21
   0 -16   5    5.17    1.02
   0  16  -5    3.81    1.00
   0 -16   5    4.16    1.08
   0  16   5    3.82    1.06
   0 -16   5    5.50    1.18
   0  16  -5    5.27    0.94
  -2  16   5    2.33    1.09
   2 -16   5    2.80    0.85
  -2 -16  -5    5.32    1.51
  -2  16   5    2.69    1.08
   2  16  -5    3.49    1.25
  -2 -16  -5    2.49    1.32
  -2 -16  -5    4.52    2.35
  -2  16   5    2.44    0.99
   2 -16   5    2.03    1.36
  -2  16   5    2.74    0.86
   2 -16   5    5.44    1.22
   2  16  -5    5.00    0.97
   2  16  -5    4.28    1.34
   2 -16   5    2.75    1.46
  -2 -16   5    3.26    1.57
   2  16   5    2.60    0.96
  -2 -16   5    4.67    1.06
   2  16   5    1.64    0.99
  -2  16  -5    2.86    0.98
  -2 -16   5    3.29    1.26
   2 -16  -5    5.28    1.42
  -2  16  -5    4.14    1.62
   2  16   5    4.72    1.13
  -2 -16   5    1.16    1.62
   2  16   5    3.97    1.49
  -2  16  -5    5.73    1.35
  -2  16  -5    3.99    1.34
  -2  16  -5    3.98    1.31
   2  16   5    4.09    1.10
  -4 -16  -5   -0.57    3.29
  -4  16   5    3.38    1.44
   4 -16   5    3.15    1.38
   4  16  -5    4.15    1.35
   4 -16   5    1.81    1.89
   4  16  -5    2.23    1.89
  -4  16   5    1.96    1.73
  -4 -16  -5   -0.49    2.54
   4 -16   5    1.44    1.49
  -4 -16  -5    1.49    2.37
   4 -16   5    2.90    1.77
  -4 -16  -5    6.76    3.70
  -4 -16   5   -0.56    1.64
  -4  16  -5    1.42    1.49
  -4  16  -5    2.62    1.58
  -4  16  -5    2.74    1.79
   4 -16  -5    2.71    1.73
   4  16   5    4.97    1.64
   4  16   5    1.79    1.39
   4  16   5    6.65    2.32
  -4 -16   5   -0.29    2.16
   4  16   5    3.68    1.44
  -4 -16   5    2.05    1.83
   6  16  -5    0.16    2.11
   6 -16   5    2.95    1.89
  -6 -16  -5   -4.83    4.54
   6 -16   5   -0.34    1.65
  -6  16   5   -2.13    2.37
  -6  16   5    5.49    2.64
  -6 -16  -5    3.27    3.66
  -6  16   5    3.06    2.98
   6 -16  -5   -0.11    2.54
  -6 -16   5    3.25    2.34
   6  16   5    0.39    1.97
  -6 -16   5   -2.80    2.93
  -6  16  -5    6.42    2.79
   6  16   5    0.73    2.31
  -6  16  -5    1.70    1.69
  -6  16  -5   -0.80    1.57
  -6 -16   5    1.50    3.64
   1  17  -5   58.26    3.93
   1 -17   5   51.88    3.80
  -1  17   5   48.65    3.81
  -1 -17  -5   50.84    4.04
   1  17  -5   51.51    3.84
  -1  17   5   57.59    3.83
   1  17  -5   48.56    3.49
  -1 -17  -5   50.02    5.07
   1  17  -5   50.72    3.65
  -1  17   5   57.10    4.01
   1  17  -5   50.93    4.12
  -1  17  -5   55.47    4.09
  -1 -17   5   48.84    3.88
   1 -17  -5   49.77    4.48
  -1 -17   5   49.90    3.55
  -1 -17   5   51.85    3.92
  -1  17  -5   52.25    3.55
  -1  17  -5   50.14    4.12
   1  17   5   51.48    3.55
   1 -17  -5   59.31    4.16
   1  17   5   51.69    3.90
  -1  17  -5   53.52    3.62
   1  17   5   50.10    3.71
  -1  17  -5   53.33    4.47
  -1 -17   5   49.37    4.45
  -3 -17  -5   37.25    5.20
   3  17  -5   37.74    3.60
  -3  17   5   36.40    3.33
   3  17  -5   31.77    2.92
  -3  17   5   31.29    3.32
  -3 -17  -5   41.07    3.42
   3  17  -5   37.19    3.60
   3 -17   5   27.09    3.91
  -3 -17  -5   43.76    6.18
  -3 -17  -5   31.66    3.69
   3 -17   5   40.84    3.53
  -3  17   5   36.46    3.25
   3 -17   5   32.51    3.50
   3  17   5   34.76    3.00
   3  17   5   34.64    3.23
   3 -17  -5   35.23    3.41
  -3  17  -5   37.63    3.67
   3  17   5   37.91    3.40
   3  17   5   38.68    2.97
  -3  17  -5   35.61    3.58
  -3 -17   5   35.20    3.89
   3  17   5   33.12    3.57
  -3 -17   5   30.38    3.55
  -3  17  -5   34.64    3.95
  -3 -17   5   38.03    3.46
   5 -17   5   11.58    2.09
  -5  17   5   19.77    2.74
  -5 -17  -5   19.08    3.84
   5 -17   5   14.50    2.55
   5 -17   5   15.80    2.32
  -5  17   5   19.14    3.42
  -5 -17  -5   13.48    4.22
   5 -17   5   19.04    3.75
  -5 -17  -5   20.98    4.78
  -5  17   5   12.71    2.53
   5  17  -5   15.21    2.45
   5 -17  -5   15.21    2.70
  -5  17  -5   12.46    2.54
  -5 -17   5   18.40    3.33
  -5 -17   5   15.11    2.98
  -5  17  -5   16.00    2.55
   5  17   5   17.64    2.91
   5  17   5   14.48    2.86
   5  17   5   15.77    2.50
  -5  17  -5   16.58    3.33
  -5 -17   5   12.71    4.01
   0  18  -5   14.50    1.76
   0  18  -5   17.33    2.06
   0  18   5   16.24    1.94
   0 -18   5   14.42    2.36
   0 -18   5   15.07    1.82
   0  18   5   18.32    1.87
   0 -18   5   14.77    1.69
   0  18   5   16.47    1.93
   0  18  -5   13.68    2.14
   0 -18  -5   14.30    2.57
   0 -18  -5   18.26    2.08
   0  18  -5   17.74    1.97
   0  18  -5   15.02    1.55
   2 -18   5   13.92    1.85
  -2  18   5   13.40    1.83
  -2 -18  -5    8.75    1.71
  -2 -18  -5   10.93    3.35
   2  18  -5   11.16    1.45
   2  18  -5   10.54    1.77
  -2  18   5   10.69    1.59
   2 -18   5   11.13    1.81
  -2  18   5   13.22    1.87
   2  18  -5   14.40    2.04
  -2 -18  -5   10.71    1.96
  -2  18   5   14.94    1.54
   2 -18   5   14.55    2.31
   2  18   5   10.83    1.65
   2  18   5   14.39    1.66
  -2  18  -5    8.20    1.83
  -2 -18   5   13.26    1.88
  -2 -18   5   14.48    2.64
  -2  18  -5   10.27    1.53
   2 -18  -5   13.53    1.92
   2  18   5   12.15    1.57
  -2  18  -5   12.25    2.23
  -2  18  -5   11.17    1.47
  -2  18  -5   13.80    2.17
   2  18   5   12.21    2.15
   2  18   5   11.36    1.80
  -2 -18   5   16.18    2.30
  -4  18   5    4.59    1.61
   4  18  -5    5.35    1.55
  -4 -18  -5    6.43    2.64
  -4 -18  -5   12.28    4.19
   4 -18   5    8.08    1.85
   4 -18   5    5.74    2.38
  -4 -18  -5    0.97    3.72
   4  18  -5    6.30    2.18
  -4  18   5    7.35    2.27
  -4 -18  -5    9.28    2.88
   4 -18   5    4.21    2.00
   4 -18  -5    5.16    1.80
  -4 -18   5    2.71    1.91
   4  18   5    8.12    1.76
  -4  18  -5    5.69    1.90
   4  18   5    7.10    1.82
  -4 -18   5    3.86    2.54
  -4 -18   5    9.75    2.31
  -4  18  -5    4.64    1.84
  -4  18  -5    7.27    1.73
   4  18   5    8.48    2.75
   4  18   5    5.99    1.67
  -6  18   5    4.11    2.60
   6  18  -5    2.92    2.25
  -6  18   5    8.10    3.21
  -6 -18  -5   -7.68    4.42
   6 -18   5    3.74    1.84
  -6  18   5    6.34    2.78
  -6 -18  -5    0.28    3.70
  -6 -18   5   -0.36    2.27
   6 -18  -5    2.22    2.64
   6  18   5    4.67    2.58
  -6 -18   5    7.48    3.82
   6  18   5    2.97    2.02
  -6  18  -5    4.46    1.81
  -6 -18   5    4.01    3.22
  -6  18  -5    5.76    2.92
  -6  18  -5    5.28    1.75
   1  19  -5    2.02    0.85
  -1  19   5    3.18    1.04
  -1  19   5    3.08    1.07
   1  19  -5    3.49    1.15
  -1  19   5    3.37    1.17
   1 -19   5    3.83    1.15
  -1 -19  -5    2.68    1.34
   1  19  -5    2.38    1.02
   1  19  -5    2.05    1.23
  -1 -19  -5    2.53    2.05
   1 -19  -5    5.11    1.82
   1  19   5    2.88    1.06
  -1  19  -5    2.78    1.13
  -1 -19   5    3.11    1.65
   1  19   5    5.27    1.27
   1  19   5    4.03    0.95
  -1 -19   5    3.67    1.15
  -1 -19   5    2.99    1.44
   1 -19  -5    5.65    1.41
  -1 -19   5    3.28    0.93
  -1  19  -5    3.34    1.01
   1  19   5    4.18    1.13
  -1  19  -5    4.18    1.03
  -1  19  -5    4.13    1.88
  -1  19  -5    2.79    1.25
  -3  19   5    1.64    1.16
   3 -19   5    5.20    1.65
  -3  19   5    3.11    1.77
   3  19  -5   -0.17    1.34
   3  19  -5    1.26    1.53
   3 -19   5    3.25    1.81
   3  19  -5    2.99    1.09
  -3 -19  -5    2.26    3.33
  -3 -19  -5    2.13    1.63
  -3 -19  -5   -0.64    2.43
  -3 -19  -5    4.08    1.97
  -3  19   5    2.21    1.46
  -3  19  -5    1.72    1.33
   3 -19  -5    1.91    1.50
  -3  19  -5    3.34    1.51
   3  19   5    0.17    1.50
  -3  19  -5   -2.58    1.39
   3  19   5    2.17    1.13
  -3 -19   5    2.56    2.06
  -3 -19   5    1.50    1.74
  -3 -19   5    4.19    1.48
   3  19   5    2.64    2.00
   3  19   5    2.19    1.03
   3  19   5   -0.54    1.07
   5 -19   5    4.37    1.75
  -5 -19  -5    8.70    3.99
   5  19  -5   -0.17    1.60
  -5  19   5   -0.75    2.58
   5 -19   5    1.93    2.15
  -5 -19  -5   -3.21    3.72
  -5  19   5    1.47    1.99
   5 -19   5    1.04    2.55
  -5 -19  -5    1.50    3.55
  -5  19   5   -2.55    1.76
  -5 -19   5    2.80    3.27
  -5  19  -5   -1.32    2.37
   5  19   5   -0.81    2.06
  -5  19  -5   -0.05    1.44
   5 -19  -5    1.45    2.06
  -5 -19   5   -0.58    2.15
  -5 -19   5    1.19    2.51
  -5  19  -5    0.85    1.82
   5  19   5   -0.93    1.64
   0  20  -5   -0.27    0.79
   0 -20   5   -1.17    0.90
   0  20   5   -1.09    0.83
   0 -20   5   -0.03    1.51
   0  20   5    2.07    0.98
   0  20  -5   -0.54    0.85
   0  20   5    0.90    0.92
   0  20  -5    1.84    1.07
   0 -20  -5    1.95    1.49
   0 -20   5   -0.23    0.87
   0  20  -5   -0.13    0.99
   0 -20  -5    1.12    1.12
   0  20  -5   -1.10    1.28
  -2 -20  -5    0.59    2.44
  -2 -20  -5    0.54    1.31
  -2  20   5   -0.47    1.06
  -2  20   5    0.61    0.82
  -2  20   5   -0.68    1.09
   2 -20   5    1.83    1.40
   2  20  -5    0.77    1.25
   2  20  -5   -1.06    0.75
   2 -20   5    0.31    1.33
   2  20  -5   -0.28    1.15
  -2  20   5    0.51    0.97
   2  20   5   -1.03    0.78
   2  20   5    0.82    1.08
  -2 -20   5   -1.72    1.54
   2  20   5    1.06    1.08
  -2  20  -5   -0.33    1.47
   2  20   5    0.88    0.92
  -2  20  -5   -0.39    1.18
  -2  20  -5    1.13    1.08
  -2  20  -5    0.12    1.08
  -2 -20   5   -1.43    1.47
   2  20   5   -1.01    1.53
  -2  20  -5    1.34    1.12
   2 -20  -5    0.63    1.11
  -2 -20   5   -0.35    1.05
   4  20  -5    0.37    1.30
   4 -20   5   -2.91    2.00
  -4 -20  -5   -0.89    3.79
  -4 -20  -5    2.00    3.73
  -4 -20  -5    1.91    2.64
  -4 -20  -5    1.94    2.64
   4 -20   5    0.25    1.58
   4 -20   5    3.43    2.28
   4  20  -5    2.06    1.94
  -4  20   5    0.54    2.03
  -4  20   5   -0.08    1.46
  -4 -20   5   -0.34    2.62
  -4  20  -5    1.74    1.83
  -4  20  -5    2.24    1.76
   4 -20  -5   -2.37    1.57
   4  20   5    3.91    2.57
   4  20   5   -0.77    1.28
  -4 -20   5   -0.96    1.91
  -4  20  -5    1.30    1.34
   4  20   5    1.63    1.52
  -4 -20   5    0.84    1.77
   4  20   5    1.20    1.56
  -6  20   5   -5.75    3.20
  -6 -20  -5    2.85    4.21
  -6  20  -5    1.49    2.74
  -6 -20   5    5.15    3.31
   1  21  -5    0.87    1.21
  -1  21   5    2.33    1.02
  -1  21   5   -1.72    0.91
   1 -21   5   -1.62    1.10
  -1  21   5   -0.70    1.03
   1 -21   5    1.52    1.70
   1  21  -5    0.39    0.86
   1  21  -5    1.60    1.05
  -1 -21  -5   -0.46    1.93
   1  21  -5   -0.35    1.05
  -1 -21  -5   -0.45    1.23
  -1 -21   5    1.88    1.62
   1 -21  -5   -0.84    1.45
   1  21   5    1.87    1.06
  -1 -21   5    0.53    1.04
  -1  21  -5   -1.77    0.89
  -1  21  -5    1.60    1.00
   1  21   5    0.40    1.03
  -1  21  -5    0.97    1.00
   1  21   5   -0.01    1.01
  -1  21  -5   -1.33    1.60
  -1  21  -5   -1.58    0.88
   1  21   5    0.23    0.73
   1  21   5    0.63    1.52
   1 -21  -5    3.42    1.25
  -3  21   5   -1.76    1.13
   3  21  -5    0.14    0.99
  -3 -21  -5    5.49    3.75
  -3 -21  -5   -0.06    1.84
   3  21  -5   -0.48    1.54
   3 -21   5   -2.86    1.66
   3 -21   5    2.15    1.84
   3  21  -5   -0.64    1.52
  -3  21   5   -2.04    1.50
  -3 -21  -5   -1.33    2.46
   3  21   5    2.13    1.23
  -3  21  -5    1.13    1.67
   3 -21  -5   -0.08    1.27
  -3 -21   5   -4.43    1.73
  -3 -21   5   -2.27    1.41
  -3  21  -5   -0.65    1.38
   3  21   5   -1.74    2.09
  -3  21  -5    0.50    1.69
  -3  21  -5   -0.04    1.42
   3  21   5   -1.15    1.19
   3  21   5    0.86    1.09
  -3 -21   5    0.43    2.24
   3  21   5    0.80    2.13
  -5  21   5    1.23    2.02
  -5  21   5   -3.96    2.72
   5 -21   5    4.50    1.87
  -5 -21  -5    0.46    3.94
  -5  21   5    0.26    1.98
  -5 -21  -5   -7.54    4.17
   5  21  -5   -2.01    1.75
  -5 -21  -5    5.11    3.97
  -5  21  -5    2.49    1.80
  -5  21  -5    4.22    2.56
   5 -21  -5    1.51    2.06
  -5 -21   5    0.91    3.55
  -5 -21   5   -2.69    2.75
  -5 -21   5    1.33    2.24
   5  21   5   -1.08    2.13
   5  21   5    0.71    1.79
  -5  21  -5    0.59    1.51
   0 -22   5    1.57    1.73
   0  22  -5    0.25    0.81
   0  22   5    0.26    1.06
   0 -22  -5   -0.58    1.09
   0  22   5    0.59    0.98
   0 -22   5    2.18    1.12
   0  22  -5   -0.68    0.90
   0  22  -5   -2.09    0.95
   0 -22  -5    0.15    1.81
   0  22  -5    0.15    1.08
   0  22   5   -0.20    1.01
   0 -22   5   -1.01    1.00
   0  22  -5    2.04    1.53
   2  22  -5   -0.73    0.91
   2 -22   5   -2.68    1.50
  -2 -22  -5    1.75    1.44
  -2 -22  -5    2.81    2.93
  -2  22   5   -0.98    0.82
  -2  22   5    2.01    1.10
  -2  22   5   -0.93    1.29
   2 -22   5    0.65    1.54
   2  22  -5    0.08    1.19
   2  22  -5   -0.48    1.25
  -2  22  -5   -1.03    1.10
   2 -22  -5    1.64    1.27
   2  22   5   -3.43    1.72
   2  22   5   -0.88    1.18
  -2 -22   5   -1.19    1.34
  -2  22  -5   -1.53    1.33
   2  22   5    1.76    0.97
  -2  22  -5    0.37    1.23
  -2 -22   5   -2.97    1.70
   2  22   5    1.18    1.32
  -2  22  -5   -3.16    1.20
  -2  22  -5   -0.16    1.44
   2  22   5   -1.02    0.80
  -2 -22   5   -0.36    1.17
  -4 -22  -5    3.42    2.82
   4  22  -5   -0.19    1.38
  -4 -22  -5    0.79    4.10
   4  22  -5   -0.57    2.02
  -4 -22  -5   -1.49    3.82
  -4  22   5   -3.26    2.33
  -4  22   5   -0.48    1.49
   4 -22   5   -0.80    1.73
   4 -22   5    2.67    2.57
  -4  22  -5    1.33    1.81
   4  22   5   -1.30    1.61
  -4  22  -5   -2.14    1.94
  -4 -22   5   -0.96    2.08
  -4  22  -5    0.30    1.35
  -4 -22   5    8.21    3.22
   4  22   5    1.77    1.38
  -4 -22   5   -2.32    1.92
  -4 -22   5    0.23    2.87
   4  22   5    2.22    1.91
   4 -22  -5    3.42    1.69
  -1  23   5    3.61    1.28
   1 -23   5    0.75    1.28
   1  23  -5    3.60    1.04
   1  23  -5    4.42    1.35
   1 -23   5    5.56    2.12
  -1  23   5    2.80    1.24
  -1 -23  -5    2.74    1.37
  -1  23   5    5.87    1.34
  -1 -23  -5    2.28    2.46
   1  23  -5    4.98    1.25
   1 -23   5    5.35    1.61
   1  23  -5    4.22    1.47
  -1 -23   5    1.35    2.04
  -1  23  -5    4.34    1.22
  -1  23  -5    4.27    1.91
  -1 -23   5    5.08    1.48
   1 -23  -5    4.91    2.02
  -1  23  -5    6.42    1.58
   1  23   5    3.89    1.33
   1  23   5    3.70    1.06
   1 -23  -5    5.06    1.50
  -1  23  -5    2.51    1.19
   1  23   5    4.67    1.34
   1  23   5    4.58    1.89
   1  23   5    5.25    1.36
  -1  23  -5    6.58    1.26
  -3 -23  -5    5.36    2.00
  -3  23   5   -2.30    1.83
  -3  23   5    2.35    1.40
   3 -23   5   -1.07    1.98
   3 -23   5    5.98    2.13
   3  23  -5    3.20    1.18
  -3  23   5    2.98    1.89
   3  23  -5    5.85    1.90
  -3 -23  -5    4.46    4.03
   3  23  -5    4.31    1.79
  -3 -23  -5    6.44    3.12
   3  23   5    3.72    1.58
   3  23   5    2.65    1.34
   3 -23  -5    4.08    1.57
  -3  23  -5    3.12    1.69
  -3 -23   5    5.97    1.86
  -3 -23   5    6.94    2.61
   3  23   5    5.63    2.52
  -3  23  -5    3.13    1.92
  -3 -23   5    1.76    1.78
  -3  23  -5    2.02    1.60
  -3  23  -5    0.99    1.59
   3  23   5    4.43    1.28
  -5  23   5    1.45    2.20
  -5  23   5    1.26    2.13
  -5  23   5    7.42    3.47
   5 -23   5    1.67    1.94
  -5 -23  -5    3.97    3.84
  -5 -23  -5    6.00    4.41
   5  23  -5    3.10    1.85
  -5 -23   5   -5.83    3.47
  -5 -23   5    1.16    3.02
  -5  23  -5    1.83    1.60
   5 -23  -5   -1.31    2.05
  -5  23  -5    5.94    2.74
   5  23   5   -0.97    1.85
  -5  23  -5   -0.93    1.73
   5  23   5    3.32    2.37
  -5 -23   5    6.83    2.47
   0  24  -5   17.93    2.06
   0  24   5   11.29    1.79
   0 -24   5   15.09    2.11
   0 -24   5   13.27    2.82
   0  24  -5   14.92    2.39
   0 -24  -5   20.96    3.42
   0  24  -5   12.70    2.36
   0  24  -5   16.05    1.74
   0  24   5   12.34    1.86
   0 -24  -5   13.62    2.11
   0  24  -5   17.77    2.02
  -2  24   5   12.34    1.90
  -2  24   5    9.73    2.10
   2  24  -5   12.52    2.14
   2 -24   5   14.47    2.21
   2 -24   5   15.74    2.71
   2 -24   5   10.30    3.01
  -2 -24  -5   12.53    3.92
  -2 -24  -5   14.28    2.25
  -2  24   5   13.06    1.69
   2  24  -5   15.75    1.85
   2  24  -5   13.74    2.12
   2  24   5   12.06    1.69
  -2 -24   5   19.04    3.33
   2  24   5   13.99    2.08
  -2  24  -5   12.48    2.48
   2 -24  -5   10.91    1.91
   2  24   5   16.43    1.83
   2  24   5   16.81    2.24
  -2  24  -5   15.61    2.52
  -2  24  -5   16.08    1.95
  -2  24  -5   15.14    2.09
  -2 -24   5   14.75    2.19
  -2  24  -5   10.01    2.30
  -4 -24  -5   11.48    4.68
   4 -24   5   10.50    2.38
  -4 -24  -5    6.83    4.57
  -4  24   5    3.73    1.80
  -4 -24  -5    6.49    2.88
   4 -24   5   -2.92    2.87
  -4  24   5    6.30    3.23
   4  24  -5    9.74    1.83
  -4 -24   5    5.95    2.29
  -4 -24   5    5.45    3.53
  -4 -24   5   12.24    2.87
   4  24   5    6.52    2.12
   4 -24  -5    4.86    1.83
   4  24   5   10.49    1.79
  -4  24  -5   11.50    2.54
  -4 -24   5    9.85    3.61
  -4  24  -5    5.63    2.36
  -4  24  -5    7.03    1.91
   4  24   5    7.94    2.04
   1  25  -5    0.05    1.19
   1  25  -5    1.70    1.20
  -1 -25  -5    3.28    2.29
   1 -25   5    0.35    1.69
  -1  25   5    1.89    1.86
   1  25  -5    2.67    1.32
  -1 -25  -5    0.10    1.31
  -1  25   5    0.63    1.15
   1 -25   5    1.19    1.29
   1 -25   5   -1.11    2.31
  -1  25  -5    2.16    1.47
  -1 -25   5    0.61    1.17
  -1  25  -5    0.89    1.06
   1 -25  -5    3.86    2.12
   1  25   5    0.98    1.36
  -1  25  -5   -2.07    1.83
   1  25   5    1.75    1.24
   1 -25  -5    2.71    2.99
   1  25   5    1.62    0.99
  -1 -25   5    0.14    2.01
  -1  25  -5    1.78    1.07
  -1  25  -5    0.65    1.19
   1 -25  -5    1.73    1.26
  -3  25   5    2.11    1.39
   3  25  -5   -0.28    1.67
  -3  25   5    1.20    1.20
  -3 -25  -5    1.93    3.23
  -3 -25  -5    2.17    1.92
   3  25  -5   -1.52    1.73
   3  25  -5    1.01    1.14
   3 -25   5    3.61    2.12
  -3 -25  -5   -4.91    3.76
   3 -25   5    1.62    2.29
  -3  25  -5    2.04    1.59
  -3  25  -5    0.37    1.60
  -3 -25   5   -1.28    2.72
   3  25   5    2.42    1.22
  -3 -25   5   -2.57    1.59
  -3  25  -5   -0.28    1.75
   3 -25  -5    2.95    1.43
   3  25   5    0.98    1.35
   3  25   5    2.58    1.53
  -3  25  -5   -2.51    1.74
  -3 -25   5    3.24    2.02
   5  25  -5   -2.48    1.78
  -5  25   5    2.32    2.21
   5 -25   5    0.76    1.98
  -5 -25  -5    3.39    4.32
  -5  25   5    1.09    2.41
  -5 -25  -5    0.41    3.96
  -5 -25   5   -0.89    3.78
  -5  25  -5    1.77    1.66
   5  25   5   -2.40    2.32
  -5 -25   5    2.81    3.48
   5  25   5    1.92    2.03
  -5  25  -5    2.12    1.84
   5 -25  -5   -1.94    2.03
  -5 -25   5    2.57    2.41
  -5  25  -5   -1.69    2.59
   0  26   5    0.29    1.15
   0 -26   5    2.76    1.47
   0  26  -5    1.63    1.24
   0  26  -5    0.50    1.00
   0  26  -5   -1.05    1.08
   0  26   5   -0.01    1.35
   0  26  -5    0.98    1.20
   0 -26  -5    0.22    2.04
   0  26  -5    0.61    1.90
   0 -26   5   -3.06    2.19
   0 -26  -5   -0.79    1.19
   2  26  -5   -1.68    1.36
   2  26  -5    1.51    1.48
  -2  26   5   -0.44    1.00
   2  26  -5   -0.51    1.02
   2 -26   5   -1.83    1.95
  -2 -26  -5   -1.84    1.45
  -2  26   5   -0.58    1.25
  -2 -26  -5   -2.97    2.76
  -2  26  -5   -0.11    1.41
  -2  26  -5   -0.43    1.58
   2 -26  -5    4.39    3.42
  -2 -26   5    1.68    2.60
  -2  26  -5    0.64    1.49
  -2  26  -5   -0.82    1.73
   2  26   5    2.23    2.46
   2  26   5    0.42    1.00
  -2  26  -5   -3.08    1.27
  -2 -26   5    1.86    1.58
   2 -26  -5    1.15    1.24
   2  26   5   -0.88    1.29
  -4 -26  -5   -7.83    4.41
  -4  26   5    0.00    1.66
   4  26  -5   -1.47    1.37
   4 -26   5    6.50    3.22
  -4 -26  -5    0.03    2.87
   4 -26   5   -4.14    1.97
  -4  26  -5    1.51    2.07
  -4 -26   5    3.62    4.01
  -4 -26   5    1.57    2.71
   4  26   5    0.26    1.57
  -4  26  -5   -0.36    1.55
  -4  26  -5   -0.84    2.05
  -4 -26   5   -1.50    1.98
   4 -26  -5    0.82    1.60
   4  26   5    2.38    1.93
   1  27  -5   38.78    3.48
   1  27  -5   42.43    3.23
   1  27  -5   40.08    3.50
  -1  27   5   37.58    3.53
   1 -27   5   49.63    4.36
  -1 -27  -5   50.04    3.96
   1 -27   5   39.99    3.72
  -1  27   5   36.83    3.29
  -1 -27  -5   42.20    5.66
   1 -27   5   36.72    4.68
   1  27  -5   47.21    4.04
   1  27   5   31.72    3.64
  -1  27  -5   36.31    3.91
   1  27   5   44.25    3.25
  -1 -27   5   39.28    4.85
  -1  27  -5   45.12    3.50
   1 -27  -5   42.53    4.68
  -1 -27   5   36.47    3.61
  -1  27  -5   41.46    3.73
   1 -27  -5   39.77    3.82
   1  27   5   45.04    3.75
  -1  27  -5   44.37    3.36
  -1  27  -5   36.35    4.31
   1 -27  -5   39.89    4.62
  -3  27   5   24.65    2.58
  -3  27   5   31.90    3.28
   3  27  -5   24.06    3.40
   3  27  -5   33.06    2.76
  -3 -27  -5   26.86    5.81
  -3 -27  -5   24.11    4.89
  -3 -27  -5   30.26    3.79
   3 -27   5   35.28    4.76
   3  27  -5   30.89    3.62
  -3  27  -5   24.58    3.44
  -3  27  -5   18.79    3.44
  -3 -27   5   30.22    3.74
  -3 -27   5   26.37    4.92
  -3  27  -5   30.94    3.24
   3 -27  -5   27.52    6.81
  -3 -27   5   20.49    4.54
   3  27   5   26.94    3.19
  -3 -27   5   19.70    2.63
   3  27   5   25.55    2.84
  -3  27  -5   31.59    3.54
   3  27   5   32.42    2.90
   3 -27  -5   26.26    3.12
   5  27  -5   12.92    2.50
  -5  27   5    5.34    2.86
  -5 -27  -5   14.39    4.86
  -5 -27  -5    8.04    4.35
   5 -27   5   20.59    2.79
  -5  27   5   14.74    3.07
   5 -27  -5    6.69    2.39
   5  27   5   20.92    3.56
   5  27   5   15.35    2.75
  -5 -27   5    7.72    2.60
  -5  27  -5   19.83    3.84
  -5  27  -5   16.46    2.66
  -5  27  -5   12.67    2.62
  -5 -27   5    8.18    4.55
   0  28  -5   -0.83    1.31
   0 -28  -5    0.80    2.28
   0  28  -5   -1.54    1.15
   0  28  -5    1.52    2.12
   0  28  -5   -0.69    1.37
   0 -28  -5   -0.79    1.34
   0  28   5    0.46    1.25
   0 -28   5    1.14    2.88
   0 -28   5   -0.69    1.54
   0  28  -5    0.05    1.08
  -2  28   5   -0.30    1.33
   2  28  -5    3.65    1.67
  -2 -28  -5    0.37    3.08
  -2  28   5   -0.43    1.08
  -2 -28  -5    2.01    1.69
   2  28  -5    0.31    1.11
   2 -28   5    0.58    2.25
   2 -28   5   -1.88    1.93
   2  28  -5   -1.04    1.60
  -2  28  -5    2.62    1.77
   2 -28  -5   -0.83    1.31
   2  28   5   -1.21    1.36
  -2 -28   5   -3.58    3.70
  -2  28  -5   -2.30    1.67
   2 -28  -5    2.83    3.09
  -2  28  -5   -2.24    1.27
  -2 -28   5   -0.27    1.86
  -2  28  -5    0.85    1.55
  -2  28  -5    0.02    1.82
  -2 -28   5    1.29    2.89
   2  28   5   -0.44    1.06
   4 -28   5   -1.63    2.15
  -4 -28  -5    0.55    2.82
  -4 -28  -5   -3.12    4.86
   4  28  -5    1.36    1.51
  -4  28   5   -1.54    1.89
   4 -28   5    1.43    3.65
  -4  28   5    3.95    2.12
  -4  28  -5   -3.23    1.93
  -4 -28   5    5.26    3.91
   4  28   5    0.72    1.62
   4  28   5    0.39    2.13
   4 -28  -5    2.59    1.78
  -4 -28   5    1.91    1.87
  -4  28  -5   -0.42    1.55
  -4  28  -5   -0.67    2.48
  -1  29   5    0.00    1.00
  -1 -29  -5   -0.18    2.59
   1 -29   5    0.50    2.25
   1 -29   5    2.70    1.91
  -1  29   5   -1.94    1.34
   1  29  -5    0.58    1.06
  -1 -29  -5   -0.34    1.32
   1  29  -5    1.18    1.53
   1  29  -5   -0.30    1.48
   1  29  -5    0.93    1.41
  -1  29  -5   -0.32    1.62
  -1  29  -5   -1.25    1.35
   1 -29  -5   -0.65    2.09
   1 -29  -5    0.11    1.31
  -1 -29   5    1.99    4.04
  -1 -29   5    2.53    3.21
  -1  29  -5   -1.14    1.34
   1  29   5    0.03    1.41
  -1  29  -5    1.47    2.31
  -1  29  -5    0.31    1.21
   1 -29  -5    1.90    2.57
  -1 -29   5   -2.71    2.22
   3 -29   5    9.99    3.35
   3  29  -5    0.14    1.28
  -3 -29  -5    3.10    3.85
  -3  29   5   -2.18    1.26
  -3 -29  -5   -1.34    4.47
   3  29  -5   -2.80    1.64
  -3  29   5    3.13    1.78
  -3 -29  -5   -0.09    2.02
  -3  29  -5    0.39    1.95
   3  29   5   -0.03    1.66
  -3  29  -5    1.18    1.74
  -3  29  -5    2.59    2.24
  -3  29  -5   -0.43    1.92
   3 -29  -5    0.34    1.39
   3  29   5   -1.76    1.22
  -3 -29   5    3.70    3.79
  -3 -29   5   -2.72    3.90
   0 -30  -5    9.70    1.87
   0 -30   5    9.30    4.46
   0  30  -5   13.20    2.12
   0  30   5   13.77    2.16
   0  30  -5    7.24    1.98
   0  30  -5   10.81    1.97
   0  30  -5    9.48    2.71
   0 -30   5    2.21    3.74
   0  30  -5   11.72    1.75
   0 -30  -5   10.64    3.14
  -2 -30  -5    7.67    2.07
  -2  30   5   10.36    1.75
  -2  30   5    4.92    1.71
   2  30  -5    9.17    2.19
   2  30  -5   10.78    2.33
   2 -30   5   12.65    3.38
   2  30  -5    8.94    1.80
  -2 -30  -5    7.40    3.77
  -2  30  -5   11.51    2.40
   2 -30  -5    7.70    2.04
  -2  30  -5   12.74    1.90
  -2  30  -5   10.65    2.32
  -2 -30   5   20.19    4.90
   2  30   5   11.72    1.75
  -2  30  -5    4.45    2.10
   2 -30  -5   14.71    3.63
  -2 -30   5   10.49    3.78
   2  30   5   10.01    2.01
  -2  30  -5    5.68    2.23
  -4  30   5    2.55    2.60
  -4 -30  -5    3.04    2.86
  -4  30   5    5.56    2.26
  -4 -30  -5   -1.99    5.20
   4  30  -5    5.90    1.81
  -4  30  -5    3.21    2.76
   4  30   5    5.55    2.03
  -4 -30   5    8.33    4.67
   4 -30  -5    5.00    2.10
   4  30   5    8.36    2.57
  -4  30  -5    5.47    1.90
  -4  30  -5    7.43    2.66
   1  31  -5    1.40    1.57
   1  31  -5    2.40    1.28
   1  31  -5    1.44    1.85
  -1  31   5    3.62    1.14
  -1 -31  -5   -0.83    2.62
  -1 -31  -5   -0.03    1.57
  -1  31   5    0.75    1.59
   1 -31  -5    6.99    3.06
  -1  31  -5    3.50    1.63
  -1  31  -5   -1.69    2.33
  -1  31  -5    0.94    1.39
  -1  31  -5    1.66    1.67
  -1 -31   5    5.72    3.80
   1  31   5    5.10    1.69
   1 -31  -5    2.25    1.49
   1 -31  -5    4.96    2.47
  -1 -31   5    0.61    4.59
  -1  31  -5    0.32    1.56
  -3 -31  -5   -1.62    4.56
  -3 -31  -5    4.41    2.21
  -3  31   5    2.90    1.89
   3  31  -5    0.75    1.40
  -3  31   5    0.46    1.44
  -3  31  -5    2.24    1.82
   3  31   5    1.89    2.00
  -3  31  -5    2.37    2.03
   3 -31  -5    3.51    1.61
  -3 -31   5   -0.61    4.52
  -3  31  -5    0.52    2.21
  -3  31  -5    2.67    2.04
   3  31   5    1.83    1.35
   0  32  -5    1.21    2.73
   0  32  -5    1.75    1.25
   0 -32  -5    1.60    2.72
   0  32   5    3.06    1.67
   0  32  -5   -3.79    1.52
   0 -32  -5   -0.64    1.41
   0  32   5   -0.75    1.14
   0 -32   5    2.14    4.92
   0  32  -5    2.41    1.60
   0  32  -5    0.20    1.67
  -2 -32  -5   -0.84    1.67
  -2  32   5   -1.43    1.15
   2  32  -5    0.81    1.22
  -2 -32  -5    0.37    3.73
   2  32  -5   -2.69    1.78
  -2  32   5    0.08    1.58
  -2  32  -5   -4.45    1.99
  -2 -32   5   -7.80    4.75
   2  32   5   -1.42    1.73
   2 -32  -5   -2.63    3.44
  -2 -32   5    0.37    4.39
  -2  32  -5   -0.63    2.04
   2  32   5   -0.44    1.20
  -2  32  -5    0.66    1.53
  -2  32  -5    0.44    1.80
   2 -32  -5   -0.14    1.35
  -2  32  -5   -0.20    1.87
   4  32  -5   -0.57    1.62
  -4  32   5   -0.24    2.15
  -4 -32  -5    2.02    3.04
  -4 -32  -5    3.92    5.74
   4  32   5   -0.60    1.75
   4  32   5   -1.52    2.46
  -4 -32   5    7.83    5.11
  -4  32  -5    1.05    1.84
  -4  32  -5    4.26    2.92
  -4  32  -5    2.28    2.44
   4 -32  -5   -0.18    1.89
   1  33  -5    1.51    1.75
  -1  33   5    4.18    1.32
  -1 -33  -5    3.14    3.20
  -1 -33  -5    4.52    1.62
  -1  33   5   -0.86    1.73
   1  33  -5   -0.44    1.21
   1  33  -5    0.61    1.65
  -1  33  -5    1.22    1.75
   1 -33  -5    2.10    2.72
  -1  33  -5    0.89    1.41
  -1  33  -5    0.34    2.63
   1 -33  -5    0.73    1.41
  -1  33  -5    0.80    1.72
  -1 -33   5    0.30    5.03
  -1 -33   5    6.06    4.78
  -1  33  -5    0.28    1.90
   1 -33  -5    2.18    2.85
   1  33   5    3.86    1.83
  -3 -33  -5    1.02    2.27
  -3  33   5    2.02    2.15
  -3 -33  -5    4.16    4.88
  -3  33   5   -1.58    2.21
   3  33  -5    1.44    1.51
  -3  33   5    0.91    1.56
   3  33   5    1.02    1.44
   3  33   5   -1.77    1.98
   3 -33  -5    1.40    1.61
  -3  33  -5    1.04    2.13
  -3  33  -5   -0.17    2.38
  -3  33  -5    3.75    2.00
  -3 -33   5    7.72    5.51
  -3  33  -5   -1.76    2.33
   0  34  -5    0.08    1.93
   0  34  -5    0.72    1.84
   0 -34  -5    2.55    2.98
   0  34  -5   -1.11    2.90
   0  34  -5   -0.84    1.77
   0 -34  -5    3.07    1.61
   0  34   5   -2.33    1.71
   0  34  -5    0.32    1.28
   0  34   5    1.95    1.25
  -2 -34  -5    1.62    1.85
  -2 -34  -5   -6.60    3.69
  -2  34   5    1.12    1.28
   2  34  -5    0.91    2.11
   2  34  -5   -0.88    1.33
  -2  34   5    0.70    1.94
   2  34   5   -1.00    1.97
  -2  34  -5    0.63    2.07
  -2 -34   5   -9.33    5.26
  -2  34  -5    0.94    2.29
  -2  34  -5   -4.29    2.01
   2 -34  -5   -1.53    1.41
   2 -34  -5    2.42    4.55
  -2  34  -5    4.10    1.73
  -1  35   5    3.73    1.43
  -1 -35  -5    6.50    3.42
  -1 -35  -5    2.21    1.69
  -1  35   5    1.83    2.07
   1  35  -5    4.55    1.48
   1  35  -5    4.07    2.17
   1  35   5    2.95    1.53
  -1  35  -5    4.29    2.25
  -1  35  -5    3.92    1.95
  -1 -35   5   -0.23    6.20
  -1  35  -5    2.52    1.53
  -1  35  -5    3.64    2.77
   1  35   5    0.82    1.95
   1 -35  -5    4.37    3.13
   1 -35  -5    1.36    1.56
   1 -35  -5    3.92    3.37
  -3  35   5    1.72    2.20
  -3  35   5   -0.23    1.67
  -3 -35  -5   10.85    5.49
  -3 -35  -5    4.93    2.51
   3  35  -5    2.09    1.66
  -3  35  -5   -2.60    2.73
   3  35   5   -0.05    1.63
  -3 -35   5    3.23    6.30
  -3  35  -5    1.77    1.98
  -3  35  -5    0.33    2.56
   3 -35  -5    1.54    1.66
  -3  35  -5    1.01    2.32
   3  35   5    3.05    2.38
   0 -36  -5    7.96    2.07
   0 -36  -5   10.08    3.27
   0  36  -5    6.35    2.31
   0  36  -5    3.75    1.64
   0  36  -5    3.94    2.20
   0  36   5    5.43    1.57
   0  36   5    3.33    2.15
   0  36  -5   -2.62    4.22
   2  36  -5    1.32    2.37
  -2  36   5    6.10    1.65
  -2  36   5    4.01    2.42
   2  36  -5    5.92    1.68
  -2 -36  -5    2.75    1.97
  -2 -36  -5   -1.70    4.16
  -2  36  -5    9.02    2.62
  -2  36  -5    9.35    2.68
   2  36   5   10.72    2.52
  -2  36  -5    5.91    1.88
   2 -36  -5    4.54    1.86
  -2 -36   5   12.28    7.06
  -2  36  -5    6.78    2.57
  -1  37   5   13.87    2.05
   1  37  -5   12.36    2.89
  -1  37   5   10.68    3.07
  -1 -37  -5   10.39    2.18
  -1 -37  -5   15.39    4.28
   1  37  -5   13.02    2.06
   1 -37  -5   12.42    2.32
   1  37   5   18.93    2.54
  -1  37  -5   14.51    2.67
  -1  37  -5   14.28    2.21
  -1  37  -5    9.13    2.87
  -1 -37   5   17.14    7.01
   1 -37  -5   13.81    3.89
   1  37   5   11.39    2.56
  -1  37  -5   12.60    3.50
   1 -37  -5    9.62    4.56
   3  37  -5   11.94    2.14
  -3 -37  -5   16.10    6.42
  -3  37   5   12.72    2.19
  -3  37   5   13.03    3.18
  -3 -37  -5    9.34    2.80
  -3 -37   5    3.92    6.62
  -3  37  -5   15.47    2.89
  -3  37  -5   12.87    3.20
   3  37   5   15.33    3.32
   3 -37  -5    7.70    2.21
  -3  37  -5    8.95    3.57
  -3  37  -5   11.47    2.83
   0  38  -5   -2.37    2.35
   0  38   5    1.17    3.35
   0  38  -5    1.41    1.55
   0  38   5    0.33    1.43
   0 -38  -5    5.44    3.38
   0 -38  -5    1.41    1.67
  -2  38   5   -0.32    2.42
  -2 -38  -5    0.47    4.65
   2  38  -5    1.16    1.66
   2  38  -5    4.60    2.57
  -2 -38  -5    4.53    2.09
  -2  38   5    2.31    1.55
  -2  38  -5    0.88    2.45
  -2  38  -5    2.82    3.03
   2  38   5    1.04    1.78
   2  38   5    1.37    2.70
  -2 -38   5   -3.01    6.68
  -2  38  -5    3.53    2.64
   2 -38  -5   -0.43    1.60
  -2  38  -5   -1.14    1.91
   1  39  -5    7.37    2.78
  -1 -39  -5    3.66    1.88
  -1  39   5    4.01    1.58
  -1  39   5    7.00    3.24
  -1 -39  -5    5.31    4.07
   1  39  -5    9.38    1.84
  -1  39  -5    7.91    1.96
  -1  39  -5   10.48    3.52
   1 -39  -5    6.24    3.81
  -1  39  -5    5.43    2.84
   1 -39  -5    3.30    1.83
   1  39   5    6.85    1.84
  -1  39  -5    5.46    2.48
   0  40  -5    5.40    1.83
   0 -40  -5    3.53    2.03
   0 -40  -5   10.31    3.91
   0  40  -5    7.40    2.97
   0  40   5    5.61    3.82
   0  40   5   11.01    1.93
  -1  41   5   -5.89    3.07
   1  41  -5   -0.57    1.65
  -1 -41  -5   -2.78    1.90
  -1 -41  -5    1.30    4.22
  -1  41   5   -0.20    1.49
   1  41  -5   -4.84    2.77
  -1  41  -5    1.77    3.67
  -1  41  -5   -5.04    3.40
   1  41   5    1.85    1.70
  -1  41  -5   -1.83    2.71
  -1  41  -5    3.02    1.82
   1 -41  -5   -0.36    4.38
   1 -41  -5    1.15    1.78
   0   0   6  141.42    9.03
   0   0   6  135.79    8.70
   0   0  -6  140.38    8.91
   0   0  -6  136.39    8.47
   0   0   6  137.13    8.58
  -2   0  -6  106.54    7.85
   2   0   6  114.28    7.62
  -2   0   6  102.94    7.08
  -2   0  -6  125.24    7.73
   2   0  -6  114.59    7.38
  -2   0   6  109.07    7.54
   2   0  -6  123.93    7.78
   2   0   6  104.28    6.80
   2   0   6  101.28    7.25
  -2   0   6  111.68    7.34
   4   0   6   69.66    6.00
  -4   0   6   72.84    5.80
   4   0   6   75.63    5.49
   4   0   6   69.12    5.54
   4   0  -6   69.89    6.32
  -4   0   6   66.38    5.72
  -4   0  -6   73.09    6.24
  -6   0   6   40.39    5.49
  -6   0  -6   27.47    4.57
   1   1  -6   -3.11    1.08
   1  -1   6    1.12    1.02
   1  -1   6    2.06    1.02
   1   1  -6    0.72    1.21
  -1  -1  -6   -0.23    1.15
  -1   1   6    0.97    0.92
  -1   1   6    1.11    0.98
  -1   1   6    0.35    0.94
  -1  -1   6    0.50    1.03
  -1   1  -6   -0.74    1.14
   1  -1  -6   -0.17    1.21
   1   1   6   -0.02    0.95
   1   1   6    0.26    0.98
  -1  -1   6    0.99    0.89
   1  -1  -6    2.26    1.28
  -1  -1   6   -0.19    0.92
  -3   1   6   -1.26    1.19
   3  -1   6   -0.59    1.22
   3  -1   6   -0.44    1.54
  -3   1   6    0.40    1.43
  -3   1   6    1.88    1.23
   3   1  -6   -1.28    1.83
   3  -1   6    0.33    1.33
  -3  -1  -6    0.13    1.50
  -3  -1  -6    1.08    1.81
   3   1  -6    1.67    1.60
   3   1   6    0.14    1.26
  -3   1  -6   -0.21    1.55
  -3  -1   6   -0.90    1.20
   3   1   6    1.18    1.24
  -3   1  -6    2.04    1.61
  -3  -1   6   -0.04    1.21
   3  -1  -6    1.64    1.59
  -3  -1   6    1.85    1.50
   3  -1  -6    0.01    1.95
   3   1   6    1.62    1.54
   5  -1   6   -0.17    2.31
   5  -1   6    1.33    1.92
  -5   1   6   -4.21    1.85
  -5   1   6    1.63    2.13
  -5  -1  -6    2.28    2.73
  -5  -1  -6   -0.46    2.05
   5  -1   6   -1.30    1.85
  -5  -1   6   -0.23    2.05
  -5   1  -6   -4.23    1.97
  -5  -1   6   -2.99    1.94
   5   1   6    0.52    1.96
  -5   1  -6    1.27    2.72
   5   1   6   -0.04    1.87
   5   1   6    0.14    2.24
   0   2   6    0.75    0.82
   0   2  -6    0.38    0.98
   0  -2   6    0.20    0.85
   0  -2   6   -0.16    0.82
   0   2   6   -0.11    0.92
   0  -2  -6   -1.65    0.98
   0  -2  -6   -0.66    1.06
   0   2   6    2.69    0.94
   0  -2   6   -0.50    0.86
   0   2  -6   -0.35    1.02
   2   2  -6    1.73    1.47
  -2  -2  -6   -1.27    1.22
   2  -2   6   -1.03    1.02
   2   2  -6    0.17    1.31
  -2   2   6   -0.30    0.99
  -2   2   6    0.28    0.99
  -2   2   6   -0.81    1.00
   2  -2   6    0.54    1.39
   2  -2   6    0.08    0.93
  -2   2  -6   -0.57    1.16
   2  -2  -6   -0.99    1.26
  -2   2  -6   -1.70    1.07
   2  -2  -6    0.64    1.70
  -2  -2   6    2.58    1.23
   2   2   6    1.31    1.50
   2   2   6    0.36    0.89
  -2  -2   6   -3.25    1.00
   2   2   6    2.30    1.15
  -2  -2   6   -1.17    1.06
  -2  -2   6    0.24    1.01
  -4   2   6   -0.46    1.60
   4  -2   6    0.82    1.63
  -4  -2  -6   -3.60    1.96
  -4   2   6    0.61    1.60
   4  -2   6    1.56    1.87
  -4   2   6   -0.76    1.97
   4   2  -6    2.20    2.26
   4  -2   6    3.11    1.71
  -4  -2  -6    0.35    2.02
   4   2   6    0.79    1.94
  -4  -2   6    0.73    1.63
  -4  -2   6   -2.79    1.84
  -4  -2   6    2.04    1.69
   4  -2  -6   -1.13    2.19
   4   2   6    0.25    1.67
  -4   2  -6   -1.80    1.76
   4   2   6    1.12    1.66
   4   2   6    0.72    1.77
  -4   2  -6    0.17    1.90
  -1   3   6    2.86    1.10
   1   3  -6    3.80    1.43
  -1   3   6    4.40    1.22
   1  -3   6    4.25    1.25
   1  -3   6    4.38    1.17
  -1   3   6    5.64    1.36
   1   3  -6    4.24    1.30
  -1  -3  -6    3.43    1.46
  -1   3  -6    3.65    1.35
   1   3   6    2.66    1.03
   1  -3  -6    4.57    1.42
  -1  -3   6    1.95    1.07
  -1  -3   6    3.83    1.27
   1   3   6    4.37    1.17
  -1  -3   6    1.59    1.03
  -1   3  -6    2.91    1.18
   1  -3  -6    3.35    1.39
  -3   3   6    2.27    1.49
  -3   3   6    2.82    1.37
   3  -3   6    5.53    2.04
   3   3  -6    6.66    2.04
   3  -3   6    1.48    1.31
   3   3  -6    2.07    1.69
  -3   3   6    1.14    1.24
  -3  -3  -6    0.85    1.66
   3  -3   6    1.01    1.34
  -3  -3   6    2.62    1.51
   3   3   6    2.01    1.46
   3   3   6   -0.47    1.16
   3  -3  -6    3.02    1.63
  -3  -3   6    4.99    1.51
  -3   3  -6    1.20    1.69
  -3   3  -6    2.34    1.63
   3  -3  -6   -1.26    2.03
   3   3   6    0.85    1.53
  -3  -3   6    1.31    1.56
  -5   3   6    0.15    1.99
   5  -3   6   -0.75    1.92
  -5  -3  -6   -2.58    2.80
  -5   3   6    3.65    2.31
   5  -3   6    2.02    2.44
   5  -3   6   -0.93    1.92
   5   3   6   -0.52    1.98
   5   3   6   -0.43    1.94
  -5   3  -6   -1.39    1.91
   5   3   6    4.21    2.71
  -5  -3   6   -0.69    2.09
  -5   3  -6    3.20    2.72
   0   4   6    0.94    0.92
   0   4  -6   -0.46    1.12
   0  -4  -6    0.37    1.13
   0   4  -6    0.96    1.02
   0   4   6   -1.82    0.83
   0  -4   6   -0.37    0.90
   0  -4   6    0.60    1.02
   0   4   6   -0.78    0.75
   0  -4  -6    0.45    1.16
   0  -4   6    1.20    0.91
  -2   4   6    0.31    1.04
  -2   4   6    0.13    1.09
   2   4  -6    0.63    1.21
   2  -4   6   -1.25    1.76
  -2  -4  -6   -1.57    1.28
   2   4  -6    0.21    1.39
  -2   4   6   -0.55    0.85
   2  -4   6    0.47    1.11
  -2  -4   6    0.89    1.10
  -2   4  -6    0.06    1.24
  -2   4  -6    2.10    1.22
  -2  -4   6    0.63    1.29
  -2  -4   6    0.15    1.08
   2  -4  -6    2.19    1.76
   2   4   6    1.37    0.92
   2  -4  -6   -1.02    1.38
   2   4   6   -0.03    1.05
   4  -4   6   -2.05    1.63
   4  -4   6   -1.23    1.59
   4   4  -6    0.76    2.10
  -4   4   6   -2.66    1.49
  -4   4   6    0.62    1.87
   4  -4   6   -0.53    1.73
  -4   4   6    0.12    1.58
  -4  -4  -6   -1.21    2.14
  -4  -4   6   -1.42    1.58
   4  -4  -6    3.51    2.44
  -4   4  -6    0.78    2.00
  -4   4  -6    2.51    1.80
  -4  -4   6    0.72    1.71
  -4  -4   6   -0.92    1.92
   4   4   6   -3.00    1.83
   4   4   6    1.36    1.56
   4   4   6    1.30    1.55
   4   4   6   -0.38    1.82
   1   5  -6    1.27    1.17
  -1   5   6    2.28    0.94
  -1   5   6    3.05    1.28
   1  -5   6    3.99    1.15
   1  -5   6    3.71    1.19
   1   5  -6    2.35    1.19
  -1   5   6    3.96    1.11
  -1  -5  -6    6.31    1.65
   1   5   6   -0.08    0.99
   1  -5  -6    2.25    1.34
  -1   5  -6    2.23    1.14
   1   5   6    1.33    1.14
  -1  -5   6    2.13    1.06
  -1   5  -6    6.28    1.62
  -1  -5   6    3.22    1.13
   1   5   6    3.61    1.24
   1  -5  -6    1.75    1.53
  -1  -5   6    3.71    1.21
   3   5  -6    1.74    1.90
  -3   5   6    1.20    1.53
   3  -5   6    1.67    1.36
   3  -5   6    3.31    1.82
   3  -5   6    4.64    1.42
  -3   5   6   -0.07    1.24
   3   5  -6   -0.38    1.43
  -3  -5  -6    3.26    2.99
  -3   5   6    0.46    1.25
  -3  -5  -6    2.75    1.77
   3   5   6    0.56    1.35
  -3   5  -6    1.25    1.65
   3   5   6    1.74    1.59
   3   5   6    2.46    1.27
  -3  -5   6    0.47    1.39
   3  -5  -6    2.92    2.22
  -3  -5   6    1.82    1.37
  -3  -5   6    0.96    1.68
   3   5   6    1.56    1.49
  -3   5  -6    0.92    1.66
  -5   5   6   -1.16    2.08
  -5  -5  -6   -0.41    2.92
   5  -5   6   -0.80    2.37
   5   5  -6   -3.32    3.09
  -5   5   6    2.69    1.95
   5  -5   6    1.64    1.88
   5  -5   6    1.63    1.93
  -5  -5   6   -0.18    2.11
  -5   5  -6    0.96    1.91
  -5  -5   6    0.78    2.28
   5   5   6    0.93    1.90
   5   5   6   -4.69    2.20
   5   5   6   -3.27    1.97
  -5   5  -6   -1.30    2.63
   0  -6  -6    1.99    1.32
   0   6   6    1.77    1.09
   0   6   6    2.09    0.94
   0   6  -6    0.19    1.13
   0   6   6    0.79    0.93
   0  -6   6    3.48    1.17
   0   6  -6    1.48    1.07
   0  -6  -6    2.25    1.32
   0  -6   6    1.97    1.15
   0  -6   6    1.38    1.04
  -2  -6  -6    3.81    1.50
  -2  -6  -6    1.83    2.29
  -2   6   6    2.02    1.18
   2  -6   6    1.89    1.18
   2   6  -6    1.10    1.27
   2   6  -6    1.15    1.53
  -2   6   6    4.15    1.18
  -2  -6   6    0.05    1.33
   2  -6  -6    2.64    1.80
  -2  -6   6   -0.02    1.10
  -2  -6   6    2.71    1.34
   2   6   6    2.33    1.24
  -2   6  -6    1.39    1.23
   2   6   6    1.24    0.99
  -2   6  -6    0.85    1.35
   2  -6  -6    3.38    1.56
  -2  -6   6    0.38    1.17
  -4   6   6    1.69    1.59
  -4   6   6    2.58    2.03
   4  -6   6    5.68    1.95
   4  -6   6    2.49    1.90
  -4   6   6   -1.05    1.47
  -4  -6  -6   -1.65    2.30
   4  -6   6    2.51    1.60
  -4  -6  -6    6.05    3.63
   4   6  -6    0.08    2.21
  -4   6  -6    5.05    2.31
   4   6   6    0.81    1.77
   4  -6  -6    0.42    2.44
  -4  -6   6    4.05    1.93
  -4  -6   6    0.75    1.53
   4   6   6    2.35    1.63
  -4   6  -6    1.73    1.96
   4   6   6    2.27    1.86
   4   6   6    5.90    1.92
  -4  -6   6   -3.30    1.95
   1  -7   6    1.92    1.03
  -1  -7  -6    1.64    1.44
   1  -7   6   -0.67    1.04
  -1   7   6    1.59    0.97
   1   7  -6   -0.53    1.15
  -1   7   6    0.58    1.01
  -1   7   6    1.39    1.02
   1   7  -6    1.34    1.27
  -1   7  -6    1.29    0.97
   1  -7  -6    3.67    1.33
  -1   7  -6    1.22    1.25
   1   7   6   -0.03    1.01
  -1  -7   6    0.17    0.92
  -1  -7   6    0.28    1.03
   1  -7  -6    1.26    1.52
   1   7   6    0.94    0.97
  -1   7  -6    1.51    1.01
  -1  -7   6   -0.17    1.00
   1   7   6   -0.03    0.82
   3  -7   6   -1.04    1.33
  -3   7   6    2.72    1.45
  -3  -7  -6    0.82    1.65
   3  -7   6    4.19    1.68
  -3  -7  -6    1.33    3.16
   3   7  -6    0.78    1.53
   3   7  -6    3.60    1.95
  -3   7   6   -0.31    1.05
  -3   7   6    0.02    1.31
   3  -7   6    4.68    1.57
  -3   7  -6    5.31    1.85
   3   7   6    1.68    1.35
  -3  -7   6   -0.15    1.26
   3   7   6    0.75    1.53
  -3  -7   6    0.51    1.62
  -3  -7   6    2.88    1.70
   3   7   6    0.54    1.29
   3  -7  -6   -4.80    2.69
  -3   7  -6    0.80    1.72
   3   7   6    1.90    1.27
   5  -7   6    2.51    2.45
  -5   7   6    0.65    2.08
   5  -7   6    2.91    1.92
   5  -7   6   -0.77    1.94
  -5   7   6   -2.68    1.83
  -5  -7  -6   -0.85    2.96
   5   7  -6   -1.14    2.15
  -5   7  -6   -3.34    2.59
   5   7   6    2.35    1.96
  -5   7  -6   -1.06    1.92
   5   7   6    1.01    2.38
  -5  -7   6    0.84    2.38
   5   7   6    1.14    2.18
  -5  -7   6   -2.60    2.00
   0   8   6   -0.02    1.02
   0  -8  -6   -1.27    1.18
   0   8  -6   -1.29    0.94
   0  -8   6   -0.48    0.98
   0  -8   6    0.08    0.94
   0   8   6    0.90    1.00
   0  -8   6    1.43    1.14
   0   8  -6    1.99    1.16
   0   8  -6    1.90    1.06
   0   8   6    0.86    0.91
   0  -8  -6    0.56    1.27
  -2  -8  -6   -2.10    2.15
  -2   8   6    1.12    0.98
   2   8  -6    0.78    1.34
   2   8  -6    1.26    1.40
  -2   8   6    0.53    1.09
  -2  -8  -6    0.90    1.39
   2  -8   6    1.24    1.18
   2   8   6   -0.23    1.12
   2  -8  -6   -0.14    1.85
  -2  -8   6    0.41    1.32
  -2  -8   6    0.80    1.18
   2  -8  -6    1.43    1.48
  -2   8  -6    0.25    1.29
  -2  -8   6   -0.68    1.07
   2   8   6   -0.87    1.40
   2   8   6   -0.15    0.93
  -2   8  -6   -1.59    1.15
  -2  -8   6    0.01    1.31
  -4  -8  -6    7.18    3.92
   4   8  -6   -0.85    1.66
  -4   8   6    0.08    2.07
   4   8  -6    3.21    2.21
   4  -8   6   -1.01    1.83
   4  -8   6    1.28    1.61
  -4  -8  -6   -3.97    2.21
  -4   8   6    3.95    1.82
   4  -8   6   -1.23    1.85
  -4   8   6    0.78    1.52
  -4   8  -6    0.17    1.94
  -4  -8   6    1.29    2.13
   4   8   6   -1.46    1.76
   4  -8  -6    2.92    2.41
   4   8   6    0.45    1.66
   4   8   6   -0.97    1.76
  -4  -8   6    0.67    2.22
   4   8   6    2.14    1.54
  -4   8  -6   -4.93    1.61
  -4  -8   6    2.43    1.62
   4  -8  -6   -0.54    3.48
  -1   9   6   23.92    2.47
  -1   9   6   17.08    2.25
   1  -9   6   24.28    2.53
  -1  -9  -6   27.70    3.81
  -1   9   6   23.45    2.42
   1   9  -6   22.65    2.60
   1   9  -6   18.93    2.38
  -1  -9  -6   26.46    2.71
   1  -9   6   21.50    2.28
   1  -9  -6   22.28    2.56
   1   9   6   20.19    2.40
   1   9   6   23.47    2.36
   1   9   6   22.41    1.98
  -1  -9   6   22.78    2.26
  -1  -9   6   22.33    2.32
  -1  -9   6   26.47    2.72
  -1   9  -6   25.54    2.77
  -1   9  -6   20.74    2.57
   1  -9  -6   19.99    2.57
  -1   9  -6   22.04    2.17
   3   9  -6   16.38    2.74
   3  -9   6   10.13    2.35
   3  -9   6   12.75    2.08
   3   9  -6   13.10    2.32
   3  -9   6   14.53    2.13
  -3   9   6   12.60    2.16
  -3  -9  -6   18.00    2.69
  -3   9   6   15.28    2.21
  -3  -9  -6   16.46    4.08
  -3   9   6   11.85    2.11
  -3   9  -6   11.16    2.35
   3   9   6   13.36    1.86
  -3   9  -6   17.71    2.98
   3   9   6   14.18    1.96
  -3  -9   6   15.19    2.68
  -3  -9   6   16.09    2.59
   3   9   6   19.52    2.91
   3  -9  -6   15.77    2.87
  -3  -9   6   18.00    2.63
   3   9   6   15.90    2.44
  -5  -9  -6   12.96    3.62
   5  -9   6    6.05    2.08
   5   9  -6    7.98    2.51
   5  -9   6    9.30    3.39
  -5  -9  -6   11.05    4.67
  -5   9   6    5.44    2.51
  -5   9   6    5.35    2.29
   5  -9   6   11.64    2.38
  -5   9  -6    7.65    2.77
  -5   9  -6    5.22    2.14
   5   9   6   12.27    2.78
   5   9   6    9.04    3.03
   5   9   6    8.40    2.25
  -5  -9   6    6.36    2.64
  -5  -9   6    5.96    2.53
   0 -10   6   33.20    2.97
   0  10   6   34.71    3.18
   0  10   6   35.05    2.98
   0 -10   6   34.00    2.93
   0  10  -6   37.31    3.27
   0  10  -6   32.37    2.88
   0  10   6   35.85    3.13
   0 -10  -6   40.26    3.30
   0  10  -6   42.89    3.63
   0 -10   6   41.58    3.51
   0 -10  -6   35.28    3.47
   0 -10  -6   33.95    3.19
   2  10  -6   33.50    3.25
  -2  10   6   28.72    2.97
  -2  10   6   32.17    2.96
  -2 -10  -6   36.90    3.13
   2 -10   6   27.36    2.65
   2  10  -6   28.19    3.17
  -2 -10  -6   33.44    4.73
  -2 -10   6   25.86    3.02
  -2 -10   6   27.00    2.77
   2 -10  -6   25.35    3.20
   2  10   6   26.03    2.80
  -2 -10   6   28.37    3.04
  -2 -10   6   30.14    3.33
  -2  10  -6   29.21    3.18
   2  10   6   34.76    3.20
  -2  10  -6   29.97    3.26
   2  10   6   28.61    2.51
   4 -10   6   15.61    2.58
   4 -10   6   13.08    2.15
   4 -10   6   21.96    3.36
   4  10  -6   12.60    2.81
  -4 -10  -6   15.50    3.17
  -4  10   6   15.96    2.90
  -4 -10  -6   18.20    4.68
  -4  10   6    6.77    2.75
  -4  10   6   16.26    2.47
   4  10  -6   19.27    2.38
  -4  10  -6   11.57    2.44
  -4 -10   6   14.19    2.94
  -4  10  -6   16.78    3.22
   4  10   6   19.28    2.30
   4  10   6   21.31    2.58
   4 -10  -6   11.03    3.21
  -4 -10   6   18.02    2.94
  -4 -10   6   14.40    2.96
   4  10   6   23.69    3.37
   4  10   6   13.46    2.82
  -1  11   6   12.64    1.80
   1  11  -6   12.76    1.72
  -1  11   6   11.10    1.82
  -1 -11  -6    9.35    1.82
   1 -11   6   13.20    1.65
   1 -11   6   10.50    1.75
  -1  11   6   13.97    2.26
  -1 -11  -6    8.63    2.54
  -1 -11  -6   11.69    2.19
   1  11  -6   10.99    2.03
   1  11   6   11.72    1.89
  -1  11  -6    7.87    1.59
  -1 -11   6   10.77    1.54
   1  11   6   12.53    1.44
  -1  11  -6    8.21    1.44
   1  11   6   12.95    1.89
  -1 -11   6    8.87    1.72
   1 -11  -6    7.35    1.97
  -1 -11   6   10.72    2.16
  -1 -11   6   12.41    1.84
  -1  11  -6   12.55    2.13
  -3 -11  -6    9.76    2.31
   3  11  -6    5.49    2.14
   3 -11   6    8.04    1.80
   3 -11   6   10.65    2.36
  -3  11   6   14.23    2.17
  -3 -11  -6   13.51    3.81
  -3  11   6    9.84    1.76
   3  11  -6    5.96    1.77
  -3  11   6    7.39    1.84
   3 -11   6    1.73    2.55
   3  11  -6   10.73    2.12
   3 -11  -6    5.18    2.39
  -3  11  -6    8.69    2.24
  -3 -11   6    5.87    2.21
  -3 -11   6   10.45    2.12
   3  11   6    9.41    2.12
  -3 -11   6   10.53    2.47
   3  11   6    7.19    1.58
   3  11   6    9.60    1.81
   3  11   6   10.50    2.06
  -3  11  -6   10.51    2.28
   5 -11   6    2.57    2.01
  -5 -11  -6    5.69    4.57
  -5 -11  -6    9.71    3.77
   5 -11   6    5.61    2.17
   5 -11   6    7.43    2.81
   5  11  -6    6.11    2.44
  -5  11   6    2.63    2.22
  -5  11   6    6.07    2.52
   5  11   6    6.61    2.70
  -5  11  -6    4.97    2.91
   5  11   6    8.02    3.04
  -5  11  -6    4.78    2.10
  -5 -11   6    3.04    2.55
  -5 -11   6    6.67    2.67
   5 -11  -6    0.85    3.28
   5  11   6    3.56    2.07
   0 -12   6    4.71    1.42
   0 -12   6    5.08    1.53
   0 -12  -6    9.13    2.00
   0 -12  -6    5.52    1.57
   0  12   6    5.65    1.35
   0  12   6    6.46    1.38
   0  12  -6    6.95    1.76
   0  12   6    6.61    1.37
   0  12  -6    6.77    1.30
   0  12  -6    7.64    1.54
   2  12  -6    5.62    1.65
  -2 -12  -6    6.75    1.72
  -2  12   6    3.89    1.45
   2 -12   6    5.69    1.37
  -2 -12  -6    7.81    3.01
  -2  12   6    6.43    1.49
   2  12  -6    4.44    1.58
   2 -12  -6    3.63    1.88
   2  12   6    6.44    1.62
  -2  12  -6    3.71    1.98
  -2 -12   6    4.17    1.76
  -2 -12   6    4.61    1.43
  -2 -12   6    2.77    1.76
  -2  12  -6    6.17    1.72
   2  12   6    5.60    1.25
   2  12   6    8.35    1.93
  -2 -12   6    5.54    1.58
  -2  12  -6    5.89    1.63
   4 -12   6    3.83    1.60
   4  12  -6   -0.07    1.70
  -4  12   6    1.35    1.55
  -4  12   6    1.38    2.63
  -4  12   6    3.84    2.06
  -4 -12  -6    2.49    3.83
  -4 -12  -6    3.64    2.58
   4  12  -6    2.13    2.35
   4 -12   6    2.39    2.19
   4 -12   6    0.28    2.02
   4  12   6    3.13    1.77
   4  12   6    2.80    1.86
  -4 -12   6    2.02    1.86
   4  12   6    2.59    2.28
  -4  12  -6   -0.12    2.12
  -4 -12   6    3.78    2.51
   4  12   6    5.72    1.69
  -4 -12   6   -1.23    2.25
   4 -12  -6    0.66    2.69
  -4  12  -6    1.46    2.17
  -1 -13  -6   15.20    2.14
   1 -13   6   15.27    1.87
   1  13  -6   16.06    2.08
   1 -13   6   16.70    2.24
  -1 -13  -6   19.45    2.59
   1  13  -6   18.84    2.72
  -1 -13  -6   15.89    3.32
  -1  13   6   21.88    2.39
  -1  13   6   16.07    2.18
  -1  13  -6   15.12    1.86
  -1 -13   6   13.58    1.86
   1  13   6   18.82    2.38
   1  13   6   19.86    2.31
   1  13   6   17.58    1.84
   1 -13  -6   15.82    2.45
  -1 -13   6   18.53    2.22
  -1 -13   6   18.10    2.45
  -1  13  -6   13.91    2.15
  -1 -13   6   20.31    3.04
  -1  13  -6   16.53    2.43
   3 -13   6   11.45    1.83
   3  13  -6   10.42    1.64
  -3  13   6    8.31    1.97
  -3 -13  -6   15.11    3.92
  -3  13   6   15.35    2.42
  -3 -13  -6   14.21    2.40
   3 -13   6   12.38    2.43
   3  13  -6   11.20    2.36
   3  13  -6   11.06    2.34
  -3  13   6   12.36    2.03
  -3 -13   6   10.09    2.42
  -3  13  -6   10.75    2.50
   3 -13  -6   11.32    2.66
   3  13   6   13.88    2.47
  -3 -13   6    9.98    2.72
  -3 -13   6   12.71    2.34
   3  13   6   11.00    1.89
  -3  13  -6   11.08    2.33
   3  13   6   14.37    1.94
   3  13   6   13.13    2.66
  -3  13  -6   15.94    2.76
  -5 -13  -6    5.75    3.73
  -5 -13  -6   16.69    4.62
   5 -13   6    0.26    2.65
  -5  13   6   10.10    2.67
   5  13  -6   10.26    2.49
  -5  13   6    8.13    2.88
   5 -13   6    8.37    2.29
  -5 -13   6    6.76    2.56
   5  13   6    4.40    2.70
   5  13   6    0.42    2.07
   5 -13  -6    0.73    3.43
  -5 -13   6    6.89    2.70
  -5  13  -6    8.26    3.18
   5  13   6    6.60    2.92
  -5  13  -6    6.32    2.21
   0 -14   6    0.88    1.16
   0  14   6   -1.67    0.96
   0  14   6   -0.42    1.02
   0  14  -6    0.95    1.03
   0 -14   6    0.09    1.13
   0  14  -6    2.16    1.12
   0 -14  -6    0.72    1.59
   0 -14  -6    1.64    1.68
   0 -14   6    2.26    1.25
   0  14  -6   -0.77    1.07
  -2 -14  -6    0.36    2.48
   2 -14   6   -1.47    1.40
  -2  14   6    0.91    1.19
  -2  14   6   -0.49    1.10
   2  14  -6    0.67    1.44
   2 -14   6    0.07    1.22
   2  14  -6   -0.92    1.28
  -2 -14  -6    3.38    1.70
  -2 -14  -6    0.24    2.14
  -2 -14   6   -2.38    1.28
  -2 -14   6    0.91    1.86
  -2 -14   6    0.85    1.18
  -2  14  -6   -1.88    1.31
  -2  14  -6    0.02    1.84
   2  14   6   -1.32    1.43
   2  14   6   -0.06    1.21
   2  14   6    0.40    1.03
   2 -14  -6    1.47    1.66
  -2 -14   6   -1.95    1.75
   2  14   6   -1.37    1.20
  -2  14  -6   -0.06    1.40
  -4  14   6    3.50    1.66
   4 -14   6    0.95    2.22
  -4 -14  -6    0.08    2.63
   4 -14   6    0.27    2.06
   4  14  -6    3.41    1.72
  -4 -14  -6    3.94    3.67
  -4  14   6    1.97    1.84
  -4  14  -6   -1.74    1.98
   4  14   6   -0.03    1.85
  -4 -14   6    0.33    2.22
  -4 -14   6   -1.06    2.61
   4  14   6   -2.27    1.49
  -4 -14   6   -0.86    1.75
   4  14   6   -2.36    1.77
   4 -14  -6   -1.68    2.39
   4  14   6    1.98    2.35
  -4  14  -6   -0.26    2.04
  -4  14  -6    0.78    1.65
   1  15  -6    3.69    1.39
  -1 -15  -6   -0.17    1.99
  -1 -15  -6   -0.24    1.75
  -1  15   6    2.40    1.27
   1 -15   6    3.86    1.48
  -1  15   6    2.45    1.27
   1  15  -6    2.67    1.25
   1  15   6    0.31    1.22
  -1  15  -6    0.50    1.23
   1  15   6    2.27    1.31
  -1  15  -6    1.60    1.13
  -1  15  -6    2.97    1.82
  -1 -15   6    2.32    1.28
  -1  15  -6    0.78    1.32
  -1 -15   6    0.80    1.67
  -1 -15   6    2.69    1.66
   1  15   6    0.23    0.99
   1 -15  -6   -0.53    1.53
  -1 -15   6    0.30    1.22
   3 -15   6    2.92    2.05
  -3  15   6   -0.13    1.45
   3  15  -6    2.55    1.71
   3  15  -6   -0.17    1.28
  -3 -15  -6    5.79    3.53
  -3 -15  -6   -1.03    2.05
  -3  15   6    2.17    1.32
   3  15  -6   -1.14    1.76
  -3  15   6    3.63    1.90
   3  15   6    4.07    1.55
   3  15   6    4.69    1.73
  -3 -15   6    0.96    2.10
  -3  15  -6    2.64    1.87
   3  15   6    1.11    1.21
  -3  15  -6    4.26    1.96
  -3 -15   6   -1.27    1.43
  -3  15  -6    3.01    1.87
   3 -15  -6    4.77    2.07
  -3 -15   6   -1.07    2.14
   3  15   6    2.11    1.93
  -5  15   6    4.06    2.10
  -5 -15  -6    0.73    3.85
  -5  15   6    3.31    2.69
   5 -15   6    1.79    2.78
   5 -15   6   -1.19    2.08
   5  15  -6    2.04    2.35
  -5 -15  -6   -0.42    4.38
  -5  15  -6   -1.43    2.69
  -5  15  -6   -4.09    1.81
   5  15   6    7.83    2.28
  -5 -15   6    0.07    2.43
   5 -15  -6    3.86    3.25
   5  15   6    1.53    2.44
  -5 -15   6    0.03    2.41
   0 -16  -6    4.47    1.77
   0 -16  -6    0.34    1.65
   0 -16   6    1.35    1.49
   0  16   6    1.58    1.19
   0 -16   6    2.97    1.35
   0 -16   6    2.64    1.43
   0  16  -6    2.44    1.23
   0  16  -6    1.34    1.28
   0  16  -6    1.60    1.49
   0  16   6    2.74    1.13
  -2 -16  -6    1.02    2.84
   2 -16   6    1.27    1.69
  -2 -16  -6    2.12    2.06
   2  16  -6    3.93    1.71
  -2  16   6    0.33    1.29
  -2  16   6    1.65    1.28
   2  16  -6    3.60    1.47
   2  16  -6    1.25    1.16
   2  16   6    1.65    1.29
  -2 -16   6    1.03    1.95
  -2  16  -6    0.21    2.02
   2 -16  -6    5.22    1.84
  -2 -16   6    0.49    2.04
   2  16   6   -1.71    1.14
   2  16   6    1.07    1.72
  -2  16  -6    2.29    1.72
  -2  16  -6   -0.06    1.48
  -2 -16   6    1.96    1.32
   2  16   6    1.21    1.14
   4 -16   6    1.25    2.33
  -4 -16  -6    5.87    4.16
  -4  16   6    0.29    1.70
   4  16  -6    0.73    1.73
   4 -16   6   -1.91    2.43
  -4 -16  -6    7.04    2.84
  -4  16   6    2.35    2.00
  -4  16  -6   -0.79    2.16
  -4 -16   6    0.26    1.81
   4  16   6    0.23    2.63
  -4  16  -6    0.76    1.72
  -4 -16   6    0.35    2.12
   4  16   6    0.43    1.91
   4  16   6    0.41    1.69
  -4  16  -6    2.46    2.24
   4 -16  -6   -1.78    2.20
   4  16   6   -0.47    1.90
  -1 -17  -6   -2.06    2.07
   1  17  -6   -0.28    1.17
  -1 -17  -6    1.02    1.77
   1 -17   6   -0.45    1.50
  -1  17   6   -1.40    1.06
   1  17  -6   -0.93    1.21
  -1  17   6    2.27    1.27
  -1 -17   6   -1.01    1.26
  -1  17  -6    2.58    1.35
  -1 -17   6    2.96    1.81
  -1 -17   6    0.66    1.74
  -1  17  -6    0.39    1.19
   1  17   6    2.08    1.06
  -1 -17   6    2.37    1.34
  -1  17  -6    0.79    1.26
  -1  17  -6   -0.59    1.81
   1  17   6    0.93    1.24
   1 -17  -6   -2.17    1.47
   1  17   6    0.79    1.26
   3  17  -6    1.12    1.76
  -3  17   6    1.67    2.15
  -3 -17  -6    3.97    3.84
   3 -17   6    2.32    1.99
   3  17  -6   -1.47    1.28
  -3  17   6    0.73    1.59
   3  17  -6    3.06    1.97
  -3  17   6   -1.07    1.29
  -3 -17  -6    2.34    3.27
  -3  17  -6   -2.34    1.69
  -3  17  -6    1.28    1.72
  -3 -17   6    0.88    1.66
  -3 -17   6   -0.27    2.15
  -3 -17   6    0.33    2.21
   3  17   6   -1.42    1.50
   3  17   6    0.35    2.05
   3  17   6    1.27    1.31
  -3  17  -6    3.05    2.07
   3  17   6    3.98    1.55
   3 -17  -6    2.30    1.81
   5 -17   6    2.60    3.14
   5 -17   6   -1.98    2.20
  -5  17   6    3.07    2.96
  -5 -17  -6    3.17    4.51
  -5  17   6    3.96    2.25
   5  17  -6    0.95    2.39
   5 -17  -6    1.93    3.08
  -5 -17   6    2.94    2.73
   5  17   6    1.41    2.58
   5  17   6    1.13    2.09
  -5 -17   6   -1.40    2.50
  -5  17  -6    0.60    1.98
  -5 -17   6   -1.13    3.74
  -5  17  -6   -0.46    2.88
   0 -18   6    1.25    1.82
   0 -18   6    2.22    1.34
   0 -18  -6    2.58    1.81
   0 -18  -6    0.66    1.61
   0  18   6    0.27    1.22
   0  18  -6    1.94    1.55
   0  18  -6    0.32    1.36
   0  18  -6   -0.90    1.25
   0  18   6    0.42    1.11
   0  18  -6    1.16    1.17
   0 -18   6    0.65    1.42
   2 -18   6    0.47    1.85
  -2  18   6   -0.32    1.15
   2  18  -6    1.61    1.14
  -2  18   6   -0.16    1.72
  -2 -18  -6    0.18    2.81
  -2 -18  -6    0.66    2.05
   2  18  -6   -0.92    1.47
   2  18  -6   -0.83    1.46
  -2  18   6   -0.85    1.32
  -2  18  -6   -0.44    1.41
  -2  18  -6    1.41    1.69
  -2 -18   6    0.80    2.12
   2  18   6    0.43    1.07
  -2 -18   6    1.96    1.34
  -2 -18   6    0.88    2.05
   2  18   6    0.19    1.29
   2  18   6    1.42    1.74
  -2  18  -6   -0.39    2.00
   2 -18  -6   -0.37    1.66
  -4  18   6   -1.62    2.01
   4 -18   6   -0.76    2.33
  -4  18   6   -0.40    1.63
   4  18  -6    2.90    1.69
  -4 -18  -6   -1.95    3.97
  -4  18  -6    0.28    1.73
   4  18   6    3.70    2.78
  -4 -18   6    0.67    2.32
   4 -18  -6    0.20    2.30
   4  18   6    2.00    1.96
   4  18   6    5.99    1.81
  -4  18  -6    0.61    2.18
  -4 -18   6   -2.71    2.00
  -4  18  -6   -1.78    2.14
   1 -19   6   11.19    2.11
   1  19  -6    8.76    2.01
  -1  19   6    9.94    1.89
  -1  19   6   10.60    1.98
   1  19  -6   10.21    1.75
  -1 -19  -6    6.10    2.09
  -1 -19  -6    8.53    2.90
  -1  19  -6   13.66    2.01
  -1  19  -6    7.32    1.54
   1  19   6    9.21    1.83
   1 -19  -6   10.11    2.03
  -1 -19   6    7.20    1.67
   1  19   6    8.01    1.51
   1  19   6   10.51    1.91
   1  19   6    8.97    2.11
  -1 -19   6    7.99    2.76
  -1  19  -6   10.12    2.10
  -1  19  -6    7.33    2.31
   3 -19   6    3.65    2.27
   3  19  -6    4.89    1.56
  -3 -19  -6    4.28    3.07
  -3 -19  -6    4.67    4.04
   3  19  -6    6.15    2.04
   3  19  -6    6.41    2.14
  -3  19   6    5.38    1.65
  -3  19   6    6.37    1.92
   3  19   6    5.32    1.73
  -3  19  -6    5.58    2.23
  -3 -19   6    7.40    2.00
   3  19   6    3.92    2.51
   3  19   6    8.49    1.61
   3 -19  -6    3.94    2.06
  -3  19  -6    4.53    2.20
   3  19   6    3.51    1.72
  -3 -19   6    2.91    2.93
  -3  19  -6    3.72    2.12
  -3 -19   6    5.19    2.05
   5 -19   6    7.12    3.49
  -5 -19  -6   -5.68    4.37
  -5  19   6    6.96    2.44
  -5  19   6    3.14    2.46
   5  19  -6    4.64    2.46
  -5  19   6   -1.36    3.11
  -5 -19   6    6.49    3.02
   5  19   6   -0.03    2.19
  -5  19  -6    0.40    1.85
  -5  19  -6    1.38    2.89
   5 -19  -6   -2.02    2.95
  -5  19  -6   -0.99    1.98
  -5 -19   6    2.74    4.06
  -5 -19   6    1.57    2.58
   5  19   6   10.76    3.18
   0  20   6   -0.56    1.22
   0 -20   6    0.74    1.38
   0  20  -6    2.37    1.74
   0 -20  -6    1.87    2.17
   0  20  -6    0.93    1.33
   0  20  -6   -0.03    1.37
   0 -20  -6    0.75    1.68
   0  20  -6   -2.01    1.21
   0  20   6    0.85    1.31
   0 -20   6   -0.76    1.95
   2  20  -6    0.32    1.29
   2  20  -6   -0.72    1.57
  -2  20   6    1.63    1.32
  -2  20   6    0.22    1.15
   2  20  -6   -1.19    1.54
  -2 -20  -6    1.35    2.03
   2 -20   6    0.20    1.87
  -2  20   6   -1.58    1.46
  -2 -20  -6   -1.00    3.01
  -2  20  -6   -0.08    1.70
  -2  20  -6    2.81    2.15
   2  20   6   -1.68    2.01
   2 -20  -6   -0.68    1.72
  -2 -20   6   -0.33    1.36
   2  20   6    1.62    1.35
   2  20   6   -1.81    1.06
  -2 -20   6   -0.96    1.70
  -2  20  -6    0.86    1.49
  -2 -20   6    1.00    2.27
  -4 -20  -6   -3.18    4.29
   4  20  -6    4.16    1.71
  -4  20   6   -0.85    1.69
  -4  20   6   -2.59    2.47
   4 -20   6    0.62    2.63
  -4  20  -6    0.55    1.79
  -4  20  -6    1.26    2.27
   4 -20  -6   -3.00    2.23
  -4  20  -6   -2.43    2.18
  -4 -20   6   -3.87    2.17
   4  20   6    1.46    2.04
   4  20   6    2.00    1.78
   4  20   6    0.75    3.22
  -4 -20   6    1.57    2.24
   1  21  -6    2.16    1.42
   1  21  -6    2.19    1.66
   1  21  -6   -0.30    1.45
  -1  21   6    2.06    1.47
   1 -21   6    3.99    1.70
  -1  21   6   -0.72    1.26
   1 -21   6    1.35    2.28
  -1 -21  -6    1.80    2.44
  -1 -21  -6    1.43    1.81
   1  21   6    1.31    1.47
  -1  21  -6    2.16    1.41
  -1 -21   6    3.35    1.45
   1 -21  -6    3.21    1.67
   1  21   6    3.60    1.22
  -1  21  -6    1.48    1.55
  -1  21  -6    0.07    1.42
  -1  21  -6    1.32    2.24
   1  21   6    1.98    2.16
   1  21   6    3.64    1.45
  -1 -21   6    0.83    2.29
   3  21  -6    3.85    1.56
   3  21  -6    2.71    1.79
  -3  21   6    0.66    1.34
  -3 -21  -6   -0.86    4.08
  -3  21   6    0.89    1.98
   3 -21   6    1.03    2.30
  -3 -21  -6   -2.37    2.94
  -3 -21   6   -1.91    1.92
  -3  21  -6    1.66    2.24
   3  21   6   -0.05    2.78
   3  21   6    2.68    1.42
   3  21   6   -2.77    1.63
  -3  21  -6   -1.43    1.96
  -3 -21   6   -1.00    2.79
  -3  21  -6    1.23    2.11
   3 -21  -6   -1.45    1.82
   3  21   6    0.86    1.70
  -3 -21   6   -1.94    1.76
   0 -22   6   46.68    4.22
   0  22   6   48.82    4.15
   0 -22   6   49.34    5.12
   0  22  -6   49.14    4.07
   0  22  -6   50.07    4.39
   0  22  -6   47.79    4.26
   0 -22  -6   44.33    4.36
   0  22   6   50.92    4.12
   0  22  -6   48.54    3.90
   0 -22  -6   52.05    5.20
   2  22  -6   39.22    3.38
   2  22  -6   39.98    3.85
  -2 -22  -6   35.15    4.15
  -2  22   6   45.11    3.76
  -2 -22  -6   61.46    6.70
   2 -22   6   42.79    4.52
  -2  22   6   34.79    3.90
  -2  22   6   31.10    3.15
  -2 -22   6   45.04    5.23
   2  22   6   41.93    3.29
  -2  22  -6   29.46    4.27
  -2  22  -6   44.82    4.21
  -2 -22   6   39.94    3.84
   2  22   6   40.58    3.85
   2  22   6   45.90    3.87
   2  22   6   36.46    4.39
   2 -22  -6   35.32    3.93
  -2  22  -6   40.06    4.14
  -4  22   6   17.89    3.07
   4 -22   6   28.87    4.64
   4  22  -6   22.13    2.66
  -4  22   6   23.02    4.08
  -4 -22  -6   18.01    5.48
   4 -22  -6   18.55    3.42
   4  22   6   32.58    3.68
  -4  22  -6   33.61    4.46
  -4 -22   6   24.40    3.88
  -4  22  -6   27.03    3.15
  -4  22  -6   19.55    3.47
  -4 -22   6    9.75    2.78
   1  23  -6   11.50    2.36
  -1 -23  -6    5.20    2.11
  -1  23   6    6.51    1.87
  -1 -23  -6    6.25    3.09
  -1  23   6    9.47    1.77
   1  23  -6   12.12    2.03
   1 -23   6    8.99    2.82
   1 -23   6    9.61    2.27
   1  23  -6    9.17    1.68
  -1  23  -6    8.82    2.55
  -1  23  -6    3.79    1.69
  -1 -23   6   11.10    2.15
   1  23   6    9.96    1.89
   1  23   6   10.22    2.07
  -1  23  -6    9.46    2.16
  -1  23  -6    9.65    2.09
  -1 -23   6    4.75    2.84
   1 -23  -6    9.10    1.92
   3 -23   6    8.53    3.04
  -3 -23  -6    4.33    4.59
   3  23  -6    5.58    1.73
  -3  23   6    5.97    1.71
  -3 -23  -6    9.46    3.09
   3  23  -6    0.48    1.90
  -3  23   6    5.74    2.51
   3 -23  -6    6.72    1.94
  -3  23  -6    6.15    2.54
  -3  23  -6   11.42    2.57
  -3 -23   6    9.12    2.24
   3  23   6    6.25    1.93
   3  23   6    5.75    1.62
  -3  23  -6    5.51    2.48
   3  23   6    7.74    1.87
   0  24   6    0.15    1.31
   0  24  -6   -2.03    1.65
   0 -24  -6   -1.48    1.66
   0 -24   6   -0.30    2.63
   0  24  -6   -1.09    1.45
   0  24  -6    2.15    1.48
   0  24   6   -0.87    1.73
   0 -24  -6    2.55    2.42
   0 -24   6   -1.22    1.66
  -2  24   6   -1.47    2.75
   2 -24   6   -3.47    1.99
  -2 -24  -6    5.99    3.92
   2  24  -6    0.23    1.73
   2 -24   6    0.32    2.39
  -2  24   6   -1.62    1.31
  -2 -24  -6   -0.15    2.07
  -2  24   6   -1.48    1.34
   2  24  -6    0.35    1.81
   2  24  -6   -1.04    1.44
  -2  24  -6    0.32    1.76
  -2 -24   6   -1.54    3.14
  -2  24  -6    1.92    1.82
   2  24   6   -0.37    1.23
  -2 -24   6    1.40    1.83
  -2  24  -6   -0.56    2.34
   2  24   6   -0.20    1.50
   2 -24  -6   -0.78    1.67
   4 -24   6   -1.10    3.49
  -4 -24  -6    3.09    5.13
  -4  24   6   -2.25    1.90
   4  24  -6    0.74    1.88
  -4 -24  -6    0.22    4.36
   4 -24  -6   -0.10    2.26
  -4 -24   6    0.22    2.08
  -4  24  -6   -2.22    2.23
   4  24   6   -1.30    2.23
  -4 -24   6    3.29    4.16
   4  24   6    1.14    1.79
  -4  24  -6    0.12    2.60
  -4  24  -6    0.95    1.94
  -4 -24   6   -3.51    2.66
  -1  25   6    3.88    1.39
   1 -25   6    3.89    2.60
   1  25  -6    1.95    1.91
  -1  25   6    3.10    1.49
   1  25  -6    0.63    1.66
  -1 -25  -6    0.71    2.00
   1  25  -6    2.94    1.52
  -1 -25  -6    7.42    3.00
   1 -25   6    2.09    2.98
   1 -25   6    4.85    2.00
  -1 -25   6    3.30    1.78
  -1  25  -6    2.03    2.56
   1  25   6    2.59    1.50
   1 -25  -6    2.07    1.72
  -1  25  -6    2.45    1.64
  -1  25  -6    2.29    1.85
  -1 -25   6    4.24    3.22
  -1  25  -6    5.28    1.95
  -3 -25  -6    4.43    2.92
   3 -25   6    6.39    3.19
   3  25  -6    3.54    2.06
  -3 -25  -6    1.99    4.74
  -3  25   6    0.95    1.69
   3  25  -6    0.35    1.53
  -3 -25   6    4.20    2.47
  -3  25  -6   -0.52    2.18
   3  25   6   -0.21    1.49
  -3  25  -6    2.84    2.35
   3  25   6    1.22    1.91
   3 -25  -6    1.74    2.04
  -3  25  -6   -0.10    2.06
   0  26   6    1.80    1.50
   0 -26  -6   -0.32    1.75
   0 -26  -6    4.00    2.52
   0  26  -6    0.12    1.53
   0  26  -6   -1.45    1.56
   0 -26   6   -4.94    2.96
   0 -26   6    0.65    1.78
   0  26  -6   -0.56    1.60
   2 -26   6    4.74    2.96
  -2  26   6    1.01    1.45
  -2 -26  -6    0.89    2.13
   2 -26   6   -1.31    2.14
   2  26  -6    0.36    1.89
  -2 -26  -6    1.40    3.70
   2  26  -6    1.58    1.53
  -2  26   6   -1.04    1.35
  -2 -26   6    4.76    3.73
   2 -26  -6   -0.96    1.68
  -2  26  -6    0.71    1.90
   2  26   6   -0.93    1.19
  -2 -26   6   -2.20    2.06
   2  26   6   -1.51    1.68
  -2  26  -6   -1.20    2.43
  -2  26  -6    1.54    2.02
  -4  26   6   -2.63    2.09
  -4 -26  -6    0.58    5.08
   4 -26   6   -2.81    3.89
   4  26  -6   -1.55    2.00
  -4 -26  -6    2.59    4.29
   4  26   6    0.21    1.88
   4  26   6   -0.27    2.28
  -4 -26   6    1.85    3.27
  -4 -26   6    6.17    4.83
  -4  26  -6   -3.24    2.47
  -4  26  -6    1.90    2.11
  -4  26  -6    0.27    2.80
   4 -26  -6    4.38    2.43
   1  27  -6    1.84    1.78
   1 -27   6    1.03    2.73
  -1  27   6    1.19    1.30
   1  27  -6    1.82    1.47
  -1 -27  -6    4.16    2.05
  -1  27   6   -0.06    1.55
   1 -27   6   -0.01    2.09
  -1 -27  -6    0.51    2.90
   1  27  -6   -1.68    1.66
  -1  27  -6    7.23    2.73
  -1 -27   6    0.29    3.50
   1  27   6    1.56    1.57
  -1  27  -6    3.80    1.77
   1 -27  -6   -1.28    1.71
  -1  27  -6   -0.50    1.96
  -1 -27   6    6.16    2.09
  -1  27  -6   -1.43    1.76
  -3 -27  -6   -2.46    4.93
  -3  27   6    4.19    1.96
   3  27  -6    0.98    1.72
   3 -27   6   -4.30    3.33
   3  27  -6    1.56    2.23
  -3 -27  -6    1.39    2.87
  -3 -27   6    0.90    2.75
   3  27   6    2.40    1.94
   3  27   6    1.41    1.56
  -3  27  -6   -0.27    2.32
  -3  27  -6    4.52    2.30
  -3  27  -6    1.54    2.28
   3 -27  -6   -0.55    1.98
  -3 -27   6   -2.56    4.39
   0  28   6    0.56    1.56
   0 -28  -6   -0.27    1.80
   0 -28   6   -0.90    3.73
   0  28  -6    1.07    1.71
   0 -28  -6   -1.61    2.54
   0 -28   6   -1.39    2.06
   0  28  -6    3.30    1.90
   0  28  -6   -1.64    1.73
   0  28  -6    1.00    2.07
   2  28  -6   -1.84    1.93
  -2  28   6    4.60    1.74
   2 -28   6    1.91    3.03
   2 -28   6    0.77    2.37
  -2  28   6    3.97    1.62
   2  28  -6   -1.23    1.52
  -2 -28  -6   -1.64    2.10
  -2 -28  -6    5.18    4.15
   2 -28  -6   -1.97    1.73
  -2  28  -6    2.62    2.12
  -2 -28   6   -2.11    2.38
   2  28   6    1.23    1.34
  -2  28  -6    4.08    2.15
   2  28   6    0.08    1.75
  -2  28  -6    0.22    2.60
   1  29  -6   -0.55    1.54
  -1 -29  -6    4.14    3.40
  -1 -29  -6    0.03    1.95
  -1  29   6    4.42    1.80
   1  29  -6    3.96    1.93
  -1  29   6    0.41    1.38
   1 -29   6   -0.17    3.01
  -1  29  -6    5.80    2.11
  -1 -29   6   -0.86    4.66
   1 -29  -6    0.62    1.81
  -1  29  -6    0.78    3.02
  -1  29  -6    1.28    2.97
   1  29   6   -1.36    1.64
  -1  29  -6    4.84    1.82
   3  29  -6    0.86    1.88
  -3 -29  -6    0.52    5.47
  -3  29   6    2.51    1.92
   3  29  -6    3.78    2.35
  -3 -29  -6    2.43    3.07
   3 -29   6   -3.60    4.11
  -3 -29   6   -5.55    4.84
   3 -29  -6    0.98    2.17
  -3  29  -6    0.42    2.32
  -3  29  -6   -1.84    2.39
  -3  29  -6    5.06    2.46
   3  29   6   -0.26    2.06
   3  29   6    0.04    1.61
   0  30  -6   -1.27    1.96
   0  30   6    1.73    1.74
   0  30  -6   -0.66    1.79
   0 -30  -6    1.79    2.75
   0 -30  -6    0.90    1.92
   0 -30   6    9.51    5.11
   0  30  -6    0.54    1.88
  -2 -30  -6   -4.92    4.17
  -2  30   6   -1.59    1.51
   2  30  -6   -1.67    2.06
  -2  30   6    0.20    1.79
  -2 -30  -6    0.54    2.24
   2  30  -6   -0.87    1.65
   2 -30  -6   -2.34    1.81
  -2  30  -6    0.81    2.82
  -2  30  -6    3.58    2.20
   2  30   6    2.11    2.04
  -2  30  -6    1.75    2.22
  -2 -30   6    1.23    5.20
  -1  31   6    5.68    1.97
   1  31  -6    2.88    1.72
  -1  31   6    4.68    1.68
  -1 -31  -6    4.87    2.26
   1  31  -6    3.99    2.22
  -1 -31  -6    5.02    3.58
   1 -31  -6    2.89    1.89
  -1 -31   6   10.62    5.45
   1  31   6    4.22    1.97
  -1  31  -6    5.20    3.41
  -1  31  -6    7.52    2.24
  -1  31  -6    0.17    1.93
  -3 -31  -6    5.37    5.79
  -3 -31  -6    1.19    3.04
   3  31  -6    3.73    1.96
  -3  31   6    4.13    2.24
  -3  31  -6    6.91    2.66
  -3  31  -6    7.88    3.07
   3 -31  -6    0.52    1.97
  -3 -31   6   -6.63    5.26
  -3  31  -6    1.23    2.78
   3  31   6    2.99    2.41
   3  31   6    1.30    1.79
   0  32  -6   22.43    3.02
   0  32  -6   19.95    3.28
   0 -32  -6   27.28    4.53
   0  32   6   20.74    2.62
   0  32   6   20.34    2.91
   0 -32  -6   18.82    2.94
   0  32  -6   27.89    3.06
   2  32  -6   19.49    2.53
  -2  32   6   19.75    2.47
  -2  32   6   12.89    2.68
  -2 -32  -6   16.79    2.95
   2  32  -6   22.12    3.36
  -2 -32  -6   25.92    5.67
   2 -32  -6   13.26    2.63
  -2 -32   6    4.63    5.86
  -2  32  -6   21.68    3.24
   2  32   6   21.54    3.03
  -2  32  -6   16.62    3.61
  -2  32  -6   20.92    3.42
  -1 -33  -6   -0.67    3.43
   1  33  -6   -1.01    1.84
  -1  33   6    1.70    1.51
  -1 -33  -6   -0.91    2.15
  -1  33   6   -1.41    1.93
   1  33  -6    0.00    2.18
  -1  33  -6    2.38    2.22
  -1  33  -6    2.57    2.24
   1  33   6    5.37    2.11
   1 -33  -6    1.39    1.80
  -1 -33   6   -7.67    5.97
  -1  33  -6    1.42    3.71
   0  34   6    3.72    1.53
   0 -34  -6    1.21    2.04
   0  34  -6   -2.53    2.20
   0  34   6    1.61    2.24
   0 -34  -6    0.50    3.31
   0  34  -6   -3.23    2.15
   2  34  -6   -2.50    1.89
  -2  34   6    0.53    2.42
  -2  34   6    1.48    1.73
  -2 -34  -6    1.55    2.42
  -2 -34  -6    4.01    4.65
   2  34  -6    0.30    2.49
  -2  34  -6   -1.68    3.06
  -2  34  -6   -0.96    2.50
  -2  34  -6    2.90    2.55
  -2 -34   6    6.88    6.27
   2 -34  -6    0.07    2.02
   2  34   6   -3.19    2.20
   1  35  -6    3.04    2.62
  -1 -35  -6    9.31    4.10
   1  35  -6    1.26    1.93
  -1 -35  -6   -0.34    2.33
  -1  35   6    0.23    1.62
  -1  35   6    0.03    2.37
   1  35   6    7.34    2.43
  -1 -35   6    9.31    7.06
   1 -35  -6    2.72    1.99
   1  35   6    3.04    1.67
  -1  35  -6    3.97    2.75
  -1  35  -6    3.40    2.53
   0  36  -6    2.42    2.47
   0 -36  -6    3.28    2.04
   0  36   6   -2.61    1.48
   0  36  -6    2.58    2.53
   0 -36  -6   -2.45    3.58
   0  36   6    2.53    2.51
   0   0   7    0.91    1.29
   0   0   7    1.59    1.45
   0   0  -7   -0.49    1.56
  -2   0   7   -0.88    1.26
  -2   0  -7   -0.28    2.00
   2   0  -7   -1.06    2.22
   2   0   7    1.31    1.79
  -2   0   7   -0.84    1.71
  -2   0   7   -0.21    1.46
   2   0   7   -0.92    1.52
   2   0  -7   -3.83    1.78
  -4   0   7    0.49    2.26
  -4   0   7   -0.01    1.91
   4   0   7   -4.78    1.95
   4   0   7    1.73    2.00
  -4   0  -7   -0.80    2.86
   1   1  -7    7.07    1.85
   1   1  -7    3.05    1.78
  -1   1   7    5.13    1.62
   1  -1   7    4.67    1.70
  -1   1   7    2.66    1.49
   1  -1   7    4.10    1.73
  -1  -1  -7    5.43    1.92
  -1  -1   7    6.03    1.68
  -1   1  -7    3.76    1.88
   1   1   7    2.74    1.54
   1   1   7    3.71    1.77
  -1  -1   7    3.70    1.50
   1  -1  -7    2.75    1.83
   1  -1  -7    6.65    2.06
   3  -1   7    1.64    1.70
   3   1  -7    0.85    2.01
  -3   1   7    2.31    1.83
  -3   1   7    3.07    1.74
  -3  -1  -7    5.06    2.24
  -3   1   7    1.10    2.18
   3  -1   7    2.66    2.04
  -3   1  -7    7.60    2.39
   3   1   7    4.19    1.91
  -3  -1   7    4.80    2.55
  -3  -1   7    1.99    1.83
   3   1   7    0.91    1.96
  -3  -1   7    2.42    1.87
   0  -2  -7    0.36    1.72
   0   2   7    0.22    1.45
   0  -2   7    0.65    1.44
   0   2   7    1.52    1.32
   0   2  -7    1.06    1.67
   0  -2   7    2.66    1.44
   2   2  -7    2.43    1.95
  -2   2   7    0.74    1.57
   2   2  -7    3.91    2.11
   2  -2   7   -1.00    1.73
  -2  -2  -7   -1.02    1.88
  -2   2   7    1.64    1.83
  -2   2   7    1.49    1.46
   2   2   7    0.69    1.55
   2   2   7    2.44    1.80
   2  -2  -7   -1.44    2.19
   2  -2  -7   -0.19    2.03
  -2  -2   7   -2.08    1.74
  -2  -2   7    1.29    1.39
  -2   2  -7    0.96    1.86
  -2  -2   7    0.63    1.66
  -4   2   7   -3.40    1.99
  -4  -2  -7    3.13    3.01
   4  -2   7   -0.82    1.98
  -4   2   7   -0.28    1.78
   4  -2   7   -0.36    2.15
   4   2   7   -0.22    1.98
  -4  -2   7    3.40    1.93
  -4  -2   7   -1.51    2.18
   4   2   7   -2.21    3.56
  -4   2  -7    0.07    2.84
   4   2   7   -1.14    2.15
  -1   3   7    3.85    1.50
   1  -3   7    1.26    1.64
   1  -3   7    3.10    1.67
   1   3  -7    0.93    1.68
  -1  -3  -7    1.83    1.80
  -1   3   7    4.46    1.58
   1   3  -7   -0.25    1.75
   1  -3  -7   -1.14    1.76
   1   3   7    3.73    1.57
   1  -3  -7    3.66    1.89
  -1   3  -7    1.05    1.73
  -1  -3   7    0.25    1.56
   1   3   7    4.62    1.73
  -1  -3   7    2.64    1.54
   3  -3   7    1.94    2.08
  -3   3   7    0.81    1.65
  -3   3   7    0.54    2.22
   3  -3   7    4.13    1.87
  -3   3   7    1.96    1.84
   3   3  -7    5.95    2.18
  -3  -3  -7    2.28    2.18
   3   3   7    5.35    2.30
  -3   3  -7    4.51    2.30
  -3  -3   7    0.65    1.66
   3   3   7   -2.37    1.72
  -3  -3   7    3.15    1.99
  -3  -3   7    1.28    3.56
   0  -4   7   -0.21    1.35
   0   4   7    1.63    1.39
   0  -4   7   -0.99    1.41
   0  -4  -7    3.78    1.78
   0   4   7    2.74    1.39
   0   4  -7   -1.63    1.50
  -2   4   7    2.20    1.49
   2   4  -7    1.66    1.68
  -2   4   7    2.40    1.52
   2   4  -7   -2.48    1.95
  -2  -4  -7    1.89    2.03
   2  -4   7    1.34    1.65
   2  -4   7    1.00    1.75
  -2   4   7   -0.75    1.63
   2   4   7    1.01    1.59
  -2   4  -7    0.43    1.87
  -2  -4   7    2.33    1.74
  -2  -4   7   -0.50    1.31
   2  -4  -7    4.74    2.47
   2  -4  -7    0.17    2.07
   2   4   7   -0.49    1.60
  -2  -4   7   -3.05    1.69
  -4   4   7   -0.83    2.09
   4  -4   7    0.60    2.24
  -4   4   7   -1.50    1.85
  -4  -4  -7    2.63    3.04
   4  -4   7   -0.76    1.88
   4   4   7    0.61    2.32
  -4   4  -7   -2.28    2.47
   4   4   7   -2.18    2.07
  -4  -4   7   -0.30    1.94
  -4  -4   7    0.74    2.60
  -4   4  -7   -3.76    2.59
   4   4   7   -0.43    2.10
   1  -5   7   37.60    3.56
  -1   5   7   37.23    3.55
   1  -5   7   43.32    4.10
  -1   5   7   40.62    3.79
  -1  -5  -7   39.71    3.90
   1   5  -7   38.21    3.69
   1   5  -7   43.12    3.93
   1  -5  -7   35.30    4.04
  -1  -5   7   38.64    3.62
   1   5   7   37.67    3.58
  -1   5  -7   44.22    4.07
   1   5   7   43.91    3.95
   1  -5  -7   34.69    3.89
  -1  -5   7   29.94    3.50
   3   5  -7   27.16    3.57
  -3  -5  -7   29.74    3.79
   3  -5   7   24.56    3.15
  -3   5   7   32.35    3.41
  -3   5   7   27.87    3.67
   3  -5   7   25.45    3.78
  -3   5   7   24.72    3.91
   3   5   7   22.30    3.51
  -3  -5   7   24.83    3.47
   3   5   7   28.37    3.34
  -3  -5   7   23.77    3.41
  -3   5  -7   32.63    4.07
   0  -6  -7    3.05    1.85
   0   6  -7    0.70    1.64
   0  -6   7    1.12    1.58
   0  -6   7    3.40    1.65
   0   6   7    0.84    1.44
   0   6   7    2.09    1.37
  -2  -6  -7    2.31    2.02
   2  -6   7    2.43    1.91
  -2   6   7   -1.15    1.43
   2   6  -7   -3.78    1.93
  -2   6   7    2.06    1.46
   2  -6   7   -1.41    1.61
   2   6  -7    2.04    1.88
   2   6   7    3.14    1.87
  -2  -6   7    1.73    1.98
   2  -6  -7    3.49    2.54
  -2  -6   7   -0.97    1.39
   2   6   7   -0.18    1.45
  -2   6  -7    2.76    1.86
  -2  -6   7   -0.04    1.78
  -2   6  -7    3.05    1.90
  -4   6   7    1.77    1.97
  -4  -6  -7    7.57    3.34
  -4   6   7   -0.41    2.07
   4  -6   7    0.84    2.32
   4  -6   7    3.13    2.11
  -4   6  -7   -0.36    2.72
   4   6   7    7.89    2.38
  -4  -6   7    4.47    2.74
  -4   6  -7    1.62    2.38
   4   6   7    1.36    2.26
  -4  -6   7   -0.94    1.96
   4   6   7    4.07    2.20
  -1   7   7    1.69    1.52
   1   7  -7    2.99    1.68
   1   7  -7    3.53    1.74
  -1   7   7    4.29    1.53
   1  -7   7    3.24    1.72
   1  -7   7    5.64    1.82
  -1  -7  -7    3.84    2.05
  -1  -7   7    5.21    1.77
  -1  -7   7    4.38    1.72
   1   7   7    4.47    1.72
   1   7   7    3.58    1.64
   1  -7  -7    4.41    2.35
  -1   7  -7    5.68    1.86
   1  -7  -7    3.76    2.13
   3  -7   7    0.76    1.97
  -3   7   7    6.23    1.83
  -3  -7  -7    1.89    2.41
  -3   7   7    4.52    1.85
   3   7  -7    3.02    2.13
   3  -7   7   -1.05    1.85
  -3   7   7   -0.68    3.41
   3   7   7    1.85    1.79
  -3   7  -7   -2.42    1.99
  -3  -7   7    0.58    2.25
  -3  -7   7    0.75    1.67
  -3   7  -7    3.71    2.69
   3   7   7    0.19    1.88
   0   8   7   14.58    2.46
   0   8   7   18.31    2.52
   0   8  -7   13.60    2.58
   0  -8   7   19.82    2.53
   0  -8   7   20.85    2.98
   0  -8  -7   16.30    2.68
   2  -8   7   14.11    2.75
  -2   8   7   13.91    2.37
   2   8  -7   14.05    2.41
  -2   8   7   11.70    2.16
  -2  -8  -7   16.31    2.94
   2  -8   7   15.58    2.41
   2   8  -7   15.42    2.59
   2   8   7   16.79    2.93
  -2   8  -7    9.40    2.44
  -2   8  -7   15.05    2.91
   2  -8  -7   14.98    3.26
  -2  -8   7   15.63    2.44
  -2  -8   7    9.39    2.63
  -2  -8   7   17.20    2.63
   2   8   7   17.94    2.76
  -4  -8  -7   13.85    3.76
  -4   8   7    7.64    2.50
  -4   8   7    9.89    2.58
   4  -8   7    8.01    2.88
   4  -8   7    8.51    2.29
   4   8   7   10.78    2.83
  -4  -8   7    9.45    3.11
  -4   8  -7    9.41    3.11
  -4  -8   7    3.96    2.35
   4   8   7    8.00    2.48
   4   8   7   13.03    3.00
  -4   8  -7   10.91    2.99
  -1   9   7    2.15    1.42
   1  -9   7   -1.53    1.65
  -1   9   7    2.19    1.48
   1   9  -7    1.25    1.66
   1   9  -7    0.93    1.60
   1  -9   7    2.54    1.57
  -1  -9  -7   -2.04    1.95
   1   9   7   -1.07    1.48
   1   9   7    1.96    1.52
  -1   9  -7   -0.10    1.80
  -1  -9   7   -0.98    2.07
  -1  -9   7    2.53    1.88
   1  -9  -7   -0.41    2.30
  -1  -9   7    0.49    1.49
  -3   9   7    0.00    1.76
   3   9  -7   -1.81    1.97
   3  -9   7   -0.18    1.73
   3  -9   7   -0.79    1.94
  -3  -9  -7   -1.43    2.38
  -3   9   7   -0.26    1.59
   3   9   7   -0.91    1.79
  -3  -9   7    3.32    2.42
   3   9   7   -2.43    1.79
   3   9   7    0.65    1.96
  -3  -9   7   -0.29    1.68
  -3   9  -7    2.71    2.26
  -3   9  -7   -1.18    2.13
   0  10   7    0.20    1.28
   0  10   7    0.02    1.30
   0 -10   7    1.18    1.68
   0  10  -7    2.89    1.70
   0 -10   7   -0.74    1.48
  -2  10   7    0.22    1.39
   2 -10   7   -0.35    1.82
   2  10  -7   -0.31    1.93
  -2  10   7    1.64    1.49
   2  10  -7   -0.84    1.79
   2 -10   7   -2.51    1.65
  -2 -10  -7    2.22    2.27
  -2 -10   7   -1.78    2.12
  -2 -10   7    0.73    2.23
   2 -10  -7    7.27    2.85
  -2 -10   7    1.35    1.58
  -2  10  -7   -0.57    1.71
   2  10   7    1.56    1.65
   2  10   7    1.40    1.88
  -2  10  -7    1.48    1.92
  -4  10   7    4.62    2.09
   4 -10   7   -1.62    2.40
  -4 -10  -7    1.31    3.44
  -4  10   7    3.78    2.18
  -4  10  -7    1.35    2.46
  -4  10  -7    1.54    2.76
  -4 -10   7    2.29    2.02
  -4 -10   7    3.62    2.94
   4  10   7    5.21    2.47
   4  10   7    0.90    2.24
   4  10   7   -0.92    2.51
   1 -11   7    1.59    1.59
  -1  11   7   -2.31    1.29
   1 -11   7   -0.97    1.66
   1  11  -7   -2.96    1.59
  -1  11   7    1.46    1.38
   1  11  -7   -1.37    1.65
   1 -11  -7    0.29    2.62
  -1  11  -7    1.49    1.65
  -1 -11   7   -0.42    2.10
   1  11   7    0.27    1.46
  -1 -11   7   -2.53    1.76
  -1  11  -7   -0.98    1.51
  -1 -11   7    0.19    1.41
   1  11   7   -1.02    1.31
   3  11  -7   -3.42    1.94
   3 -11   7   -0.39    2.13
  -3 -11  -7   -0.55    2.67
  -3  11   7    1.83    1.67
  -3  11   7    0.49    1.74
  -3 -11   7   -0.03    2.56
  -3  11  -7   -1.39    2.25
   3  11   7    0.04    1.72
  -3 -11   7   -0.81    1.74
  -3  11  -7   -1.59    2.12
   3  11   7    0.75    2.27
   3  11   7   -1.33    1.78
   0 -12   7    3.61    1.78
   0  12   7    1.47    1.48
   0 -12   7    2.65    1.69
   0  12  -7    3.15    1.76
   0  12   7    1.47    1.45
   2 -12   7    0.64    1.95
  -2  12   7    1.63    1.48
  -2  12   7    2.74    1.56
   2  12  -7    3.32    1.92
   2  12  -7    3.08    2.05
   2  12   7    0.63    2.08
  -2 -12   7    5.24    1.86
   2  12   7    2.28    1.66
  -2  12  -7    0.67    1.75
  -2 -12   7    6.14    2.67
  -2  12  -7    2.74    1.99
  -2 -12   7    2.09    2.24
   2 -12  -7    4.78    3.15
  -4 -12  -7   -5.93    3.58
  -4  12   7    2.70    2.38
  -4  12   7    0.21    2.11
   4 -12   7    2.79    2.59
  -4 -12   7    0.45    2.02
  -4  12  -7   -0.07    2.82
  -4  12  -7    3.63    2.75
  -4 -12   7   -4.28    2.65
   4  12   7    1.34    2.66
   4  12   7    2.02    2.38
   4  12   7   -0.37    2.12
  -1  13   7    2.22    1.40
   1  13  -7    0.74    1.67
  -1  13   7    1.90    1.49
   1  13  -7    2.67    1.82
   1 -13   7    3.36    2.01
   1  13   7   -0.23    1.41
   1 -13  -7    5.83    2.82
  -1  13  -7    1.84    1.56
   1  13   7   -0.03    1.36
  -1  13  -7    4.14    2.06
  -1 -13   7    0.80    1.53
  -1 -13   7    2.40    2.46
  -1 -13   7    2.83    2.05
  -3  13   7   -0.45    1.59
  -3 -13  -7    3.10    4.15
  -3  13   7    0.30    1.74
   3 -13   7    1.01    2.18
   3  13  -7   -3.70    1.89
  -3 -13   7    0.42    1.89
   3  13   7    0.08    1.97
  -3  13  -7    3.60    2.38
   3  13   7    0.59    1.84
   3  13   7    0.73    2.27
  -3  13  -7    2.49    2.42
  -3 -13   7    3.19    2.75
   0 -14   7   11.26    3.15
   0 -14   7   15.93    2.65
   0  14  -7   13.20    2.58
   0  14   7   16.71    2.52
   0  14   7   18.12    2.61
  -2  14   7   12.17    2.15
  -2  14   7   13.33    2.19
   2 -14   7   12.89    2.96
   2  14  -7   16.03    2.66
  -2  14  -7   15.62    2.93
  -2 -14   7   11.87    2.80
   2  14   7   13.96    2.56
   2  14   7   13.20    2.33
   2  14   7   10.59    2.71
   2 -14  -7   14.63    3.90
  -2 -14   7   10.57    2.40
  -2  14  -7   16.16    3.01
   4 -14   7    7.18    3.06
  -4  14   7   11.16    2.76
  -4 -14  -7   15.33    5.08
  -4  14   7    6.14    2.25
  -4 -14   7   13.21    2.90
  -4 -14   7    0.63    2.78
  -4  14  -7   12.36    3.43
   4  14   7    4.67    2.33
  -4  14  -7    4.47    2.78
   4  14   7   11.63    3.05
   4  14   7    3.86    3.18
   1  15  -7    9.32    2.09
   1  15  -7   14.61    2.61
  -1  15   7    7.69    1.78
  -1  15   7    8.31    1.83
   1 -15   7    8.38    2.60
   1  15   7   11.96    2.19
  -1 -15   7   10.06    2.87
  -1 -15   7    7.62    2.21
  -1  15  -7    9.53    2.25
  -1  15  -7   11.43    2.51
   1  15   7    7.18    1.86
  -1 -15   7    3.20    2.57
   1 -15  -7   15.42    4.07
  -3 -15  -7    7.21    4.91
  -3  15   7    7.64    2.07
   3 -15   7    8.11    2.70
  -3  15   7    5.32    2.21
   3  15  -7    3.42    2.30
  -3 -15   7    6.18    2.28
   3  15   7    5.24    2.70
   3  15   7   10.59    2.51
  -3  15  -7    6.88    2.58
  -3 -15   7   -0.06    2.67
  -3  15  -7    4.56    2.55
   3  15   7    4.34    1.97
   0 -16   7    3.09    1.95
   0  16  -7    3.55    1.81
   0  16   7   -1.38    1.48
   0 -16   7   -0.80    2.45
   0  16   7    3.22    1.59
   2 -16   7    0.06    2.26
  -2  16   7    2.99    1.73
  -2  16   7    2.50    1.62
   2  16  -7    2.27    2.04
  -2 -16  -7   -7.87    3.32
   2 -16   7    2.82    2.12
  -2  16  -7    3.44    2.06
  -2 -16   7   -2.18    2.46
  -2  16  -7    0.99    1.90
   2  16   7    1.83    1.71
   2  16   7   -0.04    2.28
   2  16   7    1.83    1.79
   2  16   7    1.77    1.76
  -2 -16   7    0.98    1.72
  -4  16   7   -3.10    2.45
  -4  16   7    1.72    2.06
   4 -16   7   -1.78    2.81
   4  16   7    0.95    2.22
  -4 -16   7    3.57    2.45
  -4  16  -7   -2.73    2.72
  -4  16  -7   -0.19    2.71
  -4 -16   7    2.81    2.65
   4  16   7    1.29    2.55
   4  16   7   -0.55    3.27
   1  17  -7   12.37    2.78
   1  17  -7   15.55    2.48
  -1  17   7   16.13    2.59
   1 -17   7   16.85    3.24
  -1  17   7   23.80    2.72
  -1 -17   7   16.95    3.87
   1  17   7   19.42    2.81
  -1  17  -7   12.39    2.40
  -1 -17   7   24.25    3.34
   1  17   7   16.55    3.07
  -1  17  -7   15.21    2.84
   1  17   7   18.02    2.73
   3 -17   7    7.58    2.76
   3  17  -7    9.21    2.55
  -3 -17  -7    1.83    4.66
  -3  17   7   10.64    2.54
  -3  17   7   12.03    2.17
   3  17   7   17.94    2.93
  -3  17  -7   15.88    3.42
   3  17   7   11.56    3.30
   3  17   7   15.23    2.27
  -3 -17   7   16.66    2.83
  -3  17  -7   13.60    3.53
  -3 -17   7    4.54    2.56
   0  18  -7    7.19    2.11
   0 -18   7    8.83    3.06
   0  18   7    5.07    1.91
   0 -18   7    5.98    2.28
   0  18   7    5.73    1.84
   2 -18   7    6.97    2.79
   2 -18   7    0.11    2.64
  -2  18   7    5.80    1.84
  -2  18   7    2.01    2.06
  -2 -18  -7    3.61    3.75
   2  18  -7    7.27    2.39
  -2 -18   7    7.50    2.05
   2  18   7    6.26    2.78
   2  18   7    4.87    2.06
   2  18   7    1.99    1.69
  -2  18  -7    5.05    2.06
  -2  18  -7    3.25    2.44
   2  18   7    4.05    1.96
   1 -19   7    0.88    3.97
   1  19  -7   -0.01    1.86
   1 -19   7    2.07    2.08
  -1  19   7    1.02    1.74
  -1  19   7    1.43    1.69
  -1  19  -7    2.89    1.81
   1  19   7   -0.84    2.46
   1 -19  -7    3.38    2.84
   1  19   7    0.58    1.77
  -1  19  -7    3.68    2.05
   1  19   7    0.66    1.62
  -1 -19   7    0.00    1.76
   3  19  -7   -1.85    2.23
  -3  19   7   -1.64    2.21
  -3 -19  -7   -6.02    4.48
   3 -19   7    2.51    2.68
  -3  19   7    1.63    1.83
  -3 -19   7    2.89    2.30
   3  19   7   -0.59    2.11
   3  19   7    0.33    1.83
  -3  19  -7   -1.27    2.47
  -3  19  -7    0.89    2.31
   3  19   7   -1.19    3.32
   0  20  -7    1.73    2.08
   0 -20   7   -0.45    1.93
   0  20   7   -2.16    1.50
   0  20   7    0.44    1.82
   0 -20  -7   -0.35    3.34
   2 -20   7   -1.01    2.50
   2 -20   7   -2.72    2.31
  -2  20   7    2.21    2.04
   2  20  -7   -1.36    2.07
  -2 -20  -7   -5.54    3.66
  -2  20   7    2.39    1.65
   2  20   7    1.19    1.99
   2 -20  -7   -0.39    2.82
  -2 -20   7   -1.22    1.90
   2  20   7    0.45    1.70
   2  20   7    2.54    3.10
   2  20   7   -1.39    1.87
  -2  20  -7   -0.45    2.01
  -2  20  -7    4.01    2.34
  -1  21   7    1.24    1.90
  -1  21   7    3.29    1.69
   1 -21   7   -0.33    2.08
   1  21  -7    0.43    1.96
  -1 -21  -7    1.91    3.15
   1 -21  -7   -1.29    2.52
   1  21   7   -0.95    1.88
  -1  21  -7   -0.34    1.94
   1  21   7   -0.63    1.63
  -1 -21   7    0.12    1.99
  -1  21  -7   -0.93    1.82
  -3  21   7   -2.61    2.90
  -3 -21  -7    1.71    5.14
   3  21  -7   -1.12    2.30
   3 -21   7    4.31    3.22
  -3  21   7    3.60    2.02
   3  21   7    3.26    2.31
  -3  21  -7    0.30    2.78
   3 -21  -7    0.39    3.28
   3  21   7   -3.93    1.81
   3  21   7    1.31    2.90
  -3  21  -7   -0.59    2.48
  -3 -21   7    0.77    2.30
   0  22   7   -3.55    1.62
   0 -22   7   -0.64    2.10
   0  22  -7    0.22    1.96
   0 -22  -7    0.29    2.51
   0  22   7    3.27    2.03
   2 -22   7   -1.56    2.53
  -2  22   7   -0.41    1.66
   2 -22   7   -0.81    2.74
  -2  22   7    3.16    2.57
  -2 -22  -7   -2.85    4.18
   2  22  -7   -0.90    2.22
   2  22   7    0.26    1.88
   2  22   7   -1.29    2.47
  -2  22  -7    0.68    2.31
  -2 -22   7    1.60    2.18
  -2  22  -7    4.76    2.41
   2 -22  -7    3.01    2.96
   2  22   7    0.91    1.77
  -1  23   7    2.98    1.72
  -1  23   7    0.45    1.70
   1 -23   7   -2.70    2.40
  -1 -23  -7   -0.10    4.27
   1  23  -7    2.77    2.19
   1 -23   7    2.99    3.00
  -1 -23  -7    5.27    3.39
  -1  23  -7    3.86    2.33
   1  23   7    1.15    1.77
  -1 -23   7    3.94    2.18
   1 -23  -7   -2.18    2.63
  -1  23  -7    3.90    1.93
   0 -24  -7    0.91    2.73
   0  24  -7    9.40    2.57
   0 -24   7    8.39    2.58
   0  24   7    7.30    2.18
   2  24  -7    3.09    2.55
  -2  24   7    3.07    1.86
  -2 -24  -7   -0.20    4.51
   2 -24   7    6.34    2.80
   2 -24   7    5.20    3.60
  -2 -24   7    8.96    2.63
  -2  24  -7    2.19    2.38
   2  24   7    9.78    2.39
  -2  24  -7    8.43    2.65
   2 -24  -7    0.47    2.86
  -1  25   7   -1.74    1.57
  -1 -25  -7    1.89    3.29
   1 -25   7   -0.56    3.25
  -1  25   7   -3.17    1.65
   1 -25   7    2.13    2.54
   1  25  -7    2.42    2.17
  -1 -25  -7    1.37    3.49
   1 -25  -7    0.50    2.72
   1  25   7   -2.46    1.80
  -1  25  -7    2.52    2.37
  -1  25  -7    5.94    2.33
  -1 -25   7    1.14    2.30
   0 -26  -7   -0.07    2.76
   0  26   7    0.20    1.91
   0  26  -7    0.14    2.18
   0 -26   7    4.92    2.54
  -2 -26  -7   -5.80    4.49
  -2  26   7   -1.24    1.87
   2 -26   7    7.49    3.73
   2 -26   7    7.28    2.95
   2  26  -7    0.50    2.35
   2  26   7    1.45    2.14
  -2  26  -7   -3.78    2.28
   2 -26  -7   -4.24    2.72
  -2 -26   7   -1.49    2.72
  -2  26  -7    1.48    2.60
  -2  26  -7    0.80    3.51
   1 -27   7   11.17    3.25
   1  27  -7   14.16    3.03
  -1 -27  -7   15.15    4.11
   1 -27   7   11.48    4.25
  -1  27   7   11.22    2.48
  -1 -27  -7   17.52    3.68
  -1  27   7   14.88    2.22
  -1  27  -7   13.94    2.85
  -1  27  -7   13.90    3.18
  -1 -27   7    7.65    2.97
   1 -27  -7    9.19    3.01
   1  27   7   11.53    2.58
   0  28   7    0.22    1.63
   0  28   7    1.58    2.02
   0 -28  -7    1.70    2.69
   0  28  -7   -1.05    2.22
   0   0   8   42.24    4.32
   0   0   8   38.07    4.06
   0   0  -8   33.91    4.27
   2   0   8   31.95    3.90
   2   0  -8   27.29    4.18
  -2   0   8   40.17    4.02
  -2   0   8   33.99    4.15
   2   0   8   32.10    4.40
   2   0   8   37.65    4.21
  -2   0  -8   31.14    4.26
  -1  -1  -8   -4.02    2.34
  -1   1   8    2.25    1.75
   1   1  -8    6.72    2.68
   1  -1   8    2.55    2.24
  -1   1   8    1.60    2.13
   1  -1   8    0.90    2.01
   1  -1  -8   -5.39    2.49
  -1  -1   8    4.17    2.23
   1   1   8    2.41    2.01
   1   1   8   -0.89    2.13
  -1   1  -8   -3.61    2.34
  -1  -1   8    1.99    1.92
   0  -2  -8    3.65    2.53
   0  -2   8    2.03    2.14
   0   2   8    1.72    1.86
   0  -2   8   -2.25    1.84
   0   2   8    0.04    2.14
   0   2  -8   -4.96    2.32
   2  -2   8    1.95    2.27
  -2  -2  -8   -2.70    2.65
  -2   2   8    0.81    1.78
   2   2  -8   -4.73    2.59
   2  -2   8    0.79    2.33
   2  -2   8    2.71    2.36
  -2   2   8   -1.56    2.16
   2   2   8    4.75    2.40
  -2  -2   8   -1.30    1.73
  -2   2  -8   -2.38    2.38
   2   2   8   -2.63    2.05
  -2  -2   8   -4.58    2.31
   2   2   8   -0.57    2.17
  -1   3   8    3.95    1.79
   1  -3   8    2.45    1.99
   1  -3   8   -2.47    2.17
  -1   3   8    2.44    2.13
  -1  -3  -8   -0.66    2.51
   1   3  -8    2.80    2.52
   1   3   8    0.43    1.87
  -1  -3   8   -0.73    1.76
  -1  -3   8    4.79    2.33
  -1   3  -8    2.04    2.35
   1   3   8    0.81    2.26
   0  -4   8    2.54    1.98
   0   4  -8   -1.46    2.27
   0   4   8    1.52    1.87
   0   4   8   -1.10    1.98
   0  -4   8   -3.29    2.24
   2  -4   8    4.83    2.39
   2  -4   8   -2.17    2.20
  -2  -4  -8   -3.42    2.74
   2  -4   8    3.08    2.32
  -2   4   8   -2.67    1.70
   2   4  -8   -1.18    2.50
  -2   4   8   -0.07    2.31
  -2  -4   8   -0.46    1.75
   2   4   8    0.31    2.27
   2   4   8    0.95    2.06
  -2   4  -8   -0.79    2.52
  -2  -4   8    1.25    2.59
   2   4   8   -4.14    2.16
   1  -5   8    0.63    2.14
   1   5  -8    1.11    2.37
  -1   5   8   -0.04    2.05
  -1  -5  -8    2.91    2.70
  -1   5   8   -0.61    1.72
   1  -5   8   -0.26    2.25
   1   5   8    1.25    1.94
  -1  -5   8    4.05    2.46
  -1   5  -8    4.80    2.50
  -1  -5   8    3.61    1.95
   1   5   8    4.19    2.30
   0  -6   8    1.96    2.31
   0   6   8    2.83    2.02
   0  -6   8    1.25    2.04
   0   6  -8   -1.89    2.22
   0   6   8    2.60    1.93
  -2  -6  -8   -8.14    2.94
   2  -6   8    1.78    2.27
  -2   6   8   -1.22    1.78
   2  -6   8    0.11    2.26
   2  -6   8    3.63    2.51
  -2   6   8    3.36    2.14
   2   6  -8   -2.16    2.42
   2   6   8   -0.19    2.08
  -2   6  -8   -0.14    2.49
   2   6   8    0.86    2.46
   2   6   8    2.03    2.26
  -2  -6   8   -2.03    1.81
  -2  -6   8   -4.70    2.63
   1  -7   8   -5.08    2.10
  -1   7   8    0.55    1.84
  -1   7   8    0.36    1.96
   1   7  -8    4.31    2.34
   1  -7   8    2.27    2.09
   1   7   8    3.00    2.20
  -1   7  -8   -0.54    2.22
   1   7   8   -0.22    1.95
  -1  -7   8    0.55    2.42
  -1  -7   8    1.45    1.91
   0  -8   8   -1.49    1.98
   0  -8   8   -2.08    2.23
   0   8   8    0.38    1.90
   0   8  -8   -1.56    2.19
   0   8   8   -0.46    1.81
  -2   8   8   -2.08    2.03
   2  -8   8    1.42    2.32
  -2   8   8   -1.60    1.82
   2  -8   8   -2.34    2.42
   2   8  -8   -1.70    2.47
   2   8   8   -2.95    2.08
   2   8   8    2.27    2.37
  -2   8  -8   -1.08    2.57
  -2  -8   8   -0.08    1.96
  -2  -8   8   -0.21    2.92
   2   8   8   -3.39    2.05
   1   9  -8    6.88    2.54
  -1   9   8    6.40    2.25
  -1   9   8    7.06    2.26
   1  -9   8    7.67    2.58
   1   9   8    8.99    2.57
  -1  -9   8    3.31    2.60
   1   9   8    9.08    2.54
  -1   9  -8    6.96    2.49
  -1  -9   8    7.77    2.41
   1   9   8   13.15    2.80
   0  10  -8    8.08    2.65
   0  10   8   10.85    2.42
   0  10   8   12.54    2.59
   0 -10   8   12.97    2.93
   2 -10   8   11.16    3.11
  -2  10   8    5.33    2.37
  -2  10   8    9.89    2.36
   2 -10   8    8.85    2.99
   2  10  -8    9.88    2.96
   2  10   8   12.19    2.73
  -2 -10   8    7.09    2.45
  -2 -10   8    3.41    2.96
   2  10   8   11.79    2.70
   2  10   8   12.03    3.01
  -2  10  -8   14.19    3.16
   1 -11   8    7.02    2.56
  -1  11   8    1.98    1.91
  -1  11   8    1.43    1.89
   1  11  -8   -1.23    2.41
   1  11   8    0.81    2.15
   1  11   8    0.50    2.02
  -1 -11   8    0.19    2.04
  -1  11  -8    1.55    2.43
   1  11   8    4.14    2.63
   0  12   8    1.04    2.07
   0  12  -8    0.87    2.42
   0  12   8    4.84    2.14
   0 -12   8   -0.63    2.31
  -2  12   8    5.75    2.16
   2 -12   8    0.24    2.53
   2 -12   8    1.15    2.67
   2  12  -8   -0.87    2.54
  -2  12   8    2.44    2.18
   2  12   8   -2.73    2.62
   2  12   8   -0.86    2.19
  -2  12  -8   -1.79    2.66
  -2 -12   8    3.05    2.24
   2  12   8    2.38    2.23
  -1  13   8    1.81    2.07
  -1  13   8    4.43    2.02
   1 -13   8    8.86    2.73
   1  13  -8    4.20    2.53
   1  13   8    5.42    2.29
  -1 -13   8    2.95    2.38
  -1  13  -8    8.98    2.61
   1  13   8    2.15    2.21
   1  13   8    6.26    2.88
   0  14   8   -3.11    1.90
   0  14  -8    3.41    2.47
   0 -14   8    1.91    2.40
   0  14   8    2.51    2.05
  -1  15   8   -2.00    1.92
  -1  15   8   -1.76    1.93
   1 -15   8   -3.55    2.44
   1  15  -8    1.48    2.42
   1  15   8   -1.35    2.09
  -1  15  -8    1.22    2.41
  -1 -15   8   -3.76    2.19
   1  15   8   -1.96    2.07
   1  15   8   -2.59    2.76
   0  16   8    3.66    2.25
   0  16   8    6.49    2.21
   0 -16   8   -1.54    2.41
   0  16  -8   -0.38    2.32
   0   0   0    0.00    0.00
;
_shelx_hkl_checksum   16744

